1



                                 *********************************************

                                    NUMERICAL ELECTROMAGNETICS CODE (NEC-2D)

                                 *********************************************




                                     - - - - COMMENTS - - - -


                                                                                                     
                                                                                                     


 ***** CARD ERROR - INVALID NUMBER AT INTEGER POSITION 2
 ***** TEXT -->  GW	101	25	 -10.00000 -10.00000 0.350000 -11.75820 -11.77730 2.700000 0.001000   
