1



                                 *********************************************

                                    NUMERICAL ELECTROMAGNETICS CODE (NEC-2D)

                                 *********************************************




                                     - - - - COMMENTS - - - -


                                                                                                     
                                                                                                     




                                 - - - STRUCTURE SPECIFICATION - - -

                                     COORDINATES MUST BE INPUT IN
                                     METERS OR BE SCALED TO METERS
                                     BEFORE STRUCTURE INPUT IS ENDED


  WIRE                                                                               NO. OF    FIRST  LAST     TAG
  NO.        X1         Y1         Z1          X2         Y2         Z2      RADIUS   SEG.     SEG.   SEG.     NO.
     1  -10.00000  -10.00000    0.35000   -11.75820  -11.77730    2.70000    0.00100     25        1    25     101
     2  -11.75820  -11.77730    2.70000   -10.00000  -10.00000   15.20000    0.00100     50       26    75     102
     3  -10.00000  -10.00000    0.35000   -12.50000  -10.01350    2.70000    0.00100     25       76   100     103
     4  -12.50000  -10.01350    2.70000   -10.00000  -10.00000   15.20000    0.00100     50      101   150     104
     5  -10.00000  -10.00000    0.35000   -11.77980   -7.77734    2.70000    0.00100     25      151   175     105
     6  -11.77980   -7.77734    2.70000   -10.00000  -10.00000   15.20000    0.00100     50      176   225     106
     7  -10.00000  -10.00000    0.35000   -10.01350   -7.50004    2.70000    0.00100     25      226   250     107
     8  -10.01350   -7.50004    2.70000   -10.00000  -10.00000   15.20000    0.00100     50      251   300     108
     9  -10.00000  -10.00000    0.35000    -7.77985   -7.75575    2.70000    0.00100     25      301   325     109
    10   -7.77985   -7.75575    2.70000   -10.00000  -10.00000   15.20000    0.00100     50      326   375     110
    11  -10.00000  -10.00000    0.35000    -7.50004   -9.98650    2.70000    0.00100     25      376   400     111
    12   -7.50004   -9.98650    2.70000   -10.00000  -10.00000   15.20000    0.00100     50      401   450     112
    13  -10.00000  -10.00000    0.35000    -7.75826  -11.75570    2.70000    0.00100     25      451   475     113
    14   -7.75826  -11.75570    2.70000   -10.00000  -10.00000   15.20000    0.00100     50      476   525     114
    15  -10.00000  -10.00000    0.35000    -9.98650  -12.50000    2.70000    0.00100     25      526   550     115
    16   -9.98650  -12.50000    2.70000   -10.00000  -10.00000   15.20000    0.00100     50      551   600     116
    17  -10.00000  -10.00000   -0.35000   -10.00000  -10.00000    0.35000    0.00100      3      601   603     117
    18  -10.00000  -10.00000   -0.35000   -11.75820  -11.77730   -2.70000    0.00100     25      604   628     118
    19  -11.75820  -11.77730   -2.70000   -10.00000  -10.00000  -15.20000    0.00100     50      629   678     119
    20  -10.00000  -10.00000   -0.35000   -12.50000  -10.01350   -2.70000    0.00100     25      679   703     120
    21  -12.50000  -10.01350   -2.70000   -10.00000  -10.00000  -15.20000    0.00100     50      704   753     121
    22  -10.00000  -10.00000   -0.35000   -11.77980   -7.77734   -2.70000    0.00100     25      754   778     122
    23  -11.77980   -7.77734   -2.70000   -10.00000  -10.00000  -15.20000    0.00100     50      779   828     123
    24  -10.00000  -10.00000   -0.35000   -10.01350   -7.50004   -2.70000    0.00100     25      829   853     124
    25  -10.01350   -7.50004   -2.70000   -10.00000  -10.00000  -15.20000    0.00100     50      854   903     125
    26  -10.00000  -10.00000   -0.35000    -7.77985   -7.75575   -2.70000    0.00100     25      904   928     126
    27   -7.77985   -7.75575   -2.70000   -10.00000  -10.00000  -15.20000    0.00100     50      929   978     127
    28  -10.00000  -10.00000   -0.35000    -7.50004   -9.98650   -2.70000    0.00100     25      979  1003     128
    29   -7.50004   -9.98650   -2.70000   -10.00000  -10.00000  -15.20000    0.00100     50     1004  1053     129
    30  -10.00000  -10.00000   -0.35000    -7.75826  -11.75570   -2.70000    0.00100     25     1054  1078     130
    31   -7.75826  -11.75570   -2.70000   -10.00000  -10.00000  -15.20000    0.00100     50     1079  1128     131
    32  -10.00000  -10.00000   -0.35000    -9.98650  -12.50000   -2.70000    0.00100     25     1129  1153     132
    33   -9.98650  -12.50000   -2.70000   -10.00000  -10.00000  -15.20000    0.00100     50     1154  1203     133
    34   10.00000  -10.00000    0.35000    11.77730  -11.75820    2.70000    0.00100     25     1204  1228     134
    35   11.77730  -11.75820    2.70000    10.00000  -10.00000   15.20000    0.00100     50     1229  1278     135
    36   10.00000  -10.00000    0.35000    10.01350  -12.50000    2.70000    0.00100     25     1279  1303     136
    37   10.01350  -12.50000    2.70000    10.00000  -10.00000   15.20000    0.00100     50     1304  1353     137
    38   10.00000  -10.00000    0.35000     7.77734  -11.77980    2.70000    0.00100     25     1354  1378     138
    39    7.77734  -11.77980    2.70000    10.00000  -10.00000   15.20000    0.00100     50     1379  1428     139
    40   10.00000  -10.00000    0.35000     7.50004  -10.01350    2.70000    0.00100     25     1429  1453     140
    41    7.50004  -10.01350    2.70000    10.00000  -10.00000   15.20000    0.00100     50     1454  1503     141
    42   10.00000  -10.00000    0.35000     7.75575   -7.77985    2.70000    0.00100     25     1504  1528     142
    43    7.75575   -7.77985    2.70000    10.00000  -10.00000   15.20000    0.00100     50     1529  1578     143
    44   10.00000  -10.00000    0.35000     9.98650   -7.50004    2.70000    0.00100     25     1579  1603     144
    45    9.98650   -7.50004    2.70000    10.00000  -10.00000   15.20000    0.00100     50     1604  1653     145
    46   10.00000  -10.00000    0.35000    11.75570   -7.75826    2.70000    0.00100     25     1654  1678     146
    47   11.75570   -7.75826    2.70000    10.00000  -10.00000   15.20000    0.00100     50     1679  1728     147
    48   10.00000  -10.00000    0.35000    12.50000   -9.98650    2.70000    0.00100     25     1729  1753     148
    49   12.50000   -9.98650    2.70000    10.00000  -10.00000   15.20000    0.00100     50     1754  1803     149
    50   10.00000  -10.00000   -0.35000    10.00000  -10.00000    0.35000    0.00100      3     1804  1806     150
    51   10.00000  -10.00000   -0.35000    11.77730  -11.75820   -2.70000    0.00100     25     1807  1831     151
    52   11.77730  -11.75820   -2.70000    10.00000  -10.00000  -15.20000    0.00100     50     1832  1881     152
    53   10.00000  -10.00000   -0.35000    10.01350  -12.50000   -2.70000    0.00100     25     1882  1906     153
    54   10.01350  -12.50000   -2.70000    10.00000  -10.00000  -15.20000    0.00100     50     1907  1956     154
    55   10.00000  -10.00000   -0.35000     7.77734  -11.77980   -2.70000    0.00100     25     1957  1981     155
    56    7.77734  -11.77980   -2.70000    10.00000  -10.00000  -15.20000    0.00100     50     1982  2031     156
    57   10.00000  -10.00000   -0.35000     7.50004  -10.01350   -2.70000    0.00100     25     2032  2056     157
    58    7.50004  -10.01350   -2.70000    10.00000  -10.00000  -15.20000    0.00100     50     2057  2106     158
    59   10.00000  -10.00000   -0.35000     7.75575   -7.77985   -2.70000    0.00100     25     2107  2131     159
    60    7.75575   -7.77985   -2.70000    10.00000  -10.00000  -15.20000    0.00100     50     2132  2181     160
    61   10.00000  -10.00000   -0.35000     9.98650   -7.50004   -2.70000    0.00100     25     2182  2206     161
    62    9.98650   -7.50004   -2.70000    10.00000  -10.00000  -15.20000    0.00100     50     2207  2256     162
    63   10.00000  -10.00000   -0.35000    11.75570   -7.75826   -2.70000    0.00100     25     2257  2281     163
    64   11.75570   -7.75826   -2.70000    10.00000  -10.00000  -15.20000    0.00100     50     2282  2331     164
    65   10.00000  -10.00000   -0.35000    12.50000   -9.98650   -2.70000    0.00100     25     2332  2356     165
    66   12.50000   -9.98650   -2.70000    10.00000  -10.00000  -15.20000    0.00100     50     2357  2406     166
    67  -10.00000   10.00000    0.35000   -11.77730   11.75820    2.70000    0.00100     25     2407  2431     167
    68  -11.77730   11.75820    2.70000   -10.00000   10.00000   15.20000    0.00100     50     2432  2481     168
    69  -10.00000   10.00000    0.35000   -10.01350   12.50000    2.70000    0.00100     25     2482  2506     169
    70  -10.01350   12.50000    2.70000   -10.00000   10.00000   15.20000    0.00100     50     2507  2556     170
    71  -10.00000   10.00000    0.35000    -7.77734   11.77980    2.70000    0.00100     25     2557  2581     171
    72   -7.77734   11.77980    2.70000   -10.00000   10.00000   15.20000    0.00100     50     2582  2631     172
    73  -10.00000   10.00000    0.35000    -7.50004   10.01350    2.70000    0.00100     25     2632  2656     173
    74   -7.50004   10.01350    2.70000   -10.00000   10.00000   15.20000    0.00100     50     2657  2706     174
    75  -10.00000   10.00000    0.35000    -7.75575    7.77985    2.70000    0.00100     25     2707  2731     175
    76   -7.75575    7.77985    2.70000   -10.00000   10.00000   15.20000    0.00100     50     2732  2781     176
    77  -10.00000   10.00000    0.35000    -9.98650    7.50004    2.70000    0.00100     25     2782  2806     177
    78   -9.98650    7.50004    2.70000   -10.00000   10.00000   15.20000    0.00100     50     2807  2856     178
    79  -10.00000   10.00000    0.35000   -11.75570    7.75826    2.70000    0.00100     25     2857  2881     179
    80  -11.75570    7.75826    2.70000   -10.00000   10.00000   15.20000    0.00100     50     2882  2931     180
    81  -10.00000   10.00000    0.35000   -12.50000    9.98650    2.70000    0.00100     25     2932  2956     181
    82  -12.50000    9.98650    2.70000   -10.00000   10.00000   15.20000    0.00100     50     2957  3006     182
    83  -10.00000   10.00000   -0.35000   -10.00000   10.00000    0.35000    0.00100      3     3007  3009     183
    84  -10.00000   10.00000   -0.35000   -11.77730   11.75820   -2.70000    0.00100     25     3010  3034     184
    85  -11.77730   11.75820   -2.70000   -10.00000   10.00000  -15.20000    0.00100     50     3035  3084     185
    86  -10.00000   10.00000   -0.35000   -10.01350   12.50000   -2.70000    0.00100     25     3085  3109     186
    87  -10.01350   12.50000   -2.70000   -10.00000   10.00000  -15.20000    0.00100     50     3110  3159     187
    88  -10.00000   10.00000   -0.35000    -7.77734   11.77980   -2.70000    0.00100     25     3160  3184     188
    89   -7.77734   11.77980   -2.70000   -10.00000   10.00000  -15.20000    0.00100     50     3185  3234     189
    90  -10.00000   10.00000   -0.35000    -7.50004   10.01350   -2.70000    0.00100     25     3235  3259     190
    91   -7.50004   10.01350   -2.70000   -10.00000   10.00000  -15.20000    0.00100     50     3260  3309     191
    92  -10.00000   10.00000   -0.35000    -7.75575    7.77985   -2.70000    0.00100     25     3310  3334     192
    93   -7.75575    7.77985   -2.70000   -10.00000   10.00000  -15.20000    0.00100     50     3335  3384     193
    94  -10.00000   10.00000   -0.35000    -9.98650    7.50004   -2.70000    0.00100     25     3385  3409     194
    95   -9.98650    7.50004   -2.70000   -10.00000   10.00000  -15.20000    0.00100     50     3410  3459     195
    96  -10.00000   10.00000   -0.35000   -11.75570    7.75826   -2.70000    0.00100     25     3460  3484     196
    97  -11.75570    7.75826   -2.70000   -10.00000   10.00000  -15.20000    0.00100     50     3485  3534     197
    98  -10.00000   10.00000   -0.35000   -12.50000    9.98650   -2.70000    0.00100     25     3535  3559     198
    99  -12.50000    9.98650   -2.70000   -10.00000   10.00000  -15.20000    0.00100     50     3560  3609     199
   100   10.00000   10.00000    0.35000    11.75820   11.77730    2.70000    0.00100     25     3610  3634     200
   101   11.75820   11.77730    2.70000    10.00000   10.00000   15.20000    0.00100     50     3635  3684     201
   102   10.00000   10.00000    0.35000    12.50000   10.01350    2.70000    0.00100     25     3685  3709     202
   103   12.50000   10.01350    2.70000    10.00000   10.00000   15.20000    0.00100     50     3710  3759     203
   104   10.00000   10.00000    0.35000    11.77980    7.77734    2.70000    0.00100     25     3760  3784     204
   105   11.77980    7.77734    2.70000    10.00000   10.00000   15.20000    0.00100     50     3785  3834     205
   106   10.00000   10.00000    0.35000    10.01350    7.50004    2.70000    0.00100     25     3835  3859     206
   107   10.01350    7.50004    2.70000    10.00000   10.00000   15.20000    0.00100     50     3860  3909     207
   108   10.00000   10.00000    0.35000     7.77985    7.75575    2.70000    0.00100     25     3910  3934     208
   109    7.77985    7.75575    2.70000    10.00000   10.00000   15.20000    0.00100     50     3935  3984     209
   110   10.00000   10.00000    0.35000     7.50004    9.98650    2.70000    0.00100     25     3985  4009     210
   111    7.50004    9.98650    2.70000    10.00000   10.00000   15.20000    0.00100     50     4010  4059     211
   112   10.00000   10.00000    0.35000     7.75826   11.75570    2.70000    0.00100     25     4060  4084     212
   113    7.75826   11.75570    2.70000    10.00000   10.00000   15.20000    0.00100     50     4085  4134     213
   114   10.00000   10.00000    0.35000     9.98650   12.50000    2.70000    0.00100     25     4135  4159     214
   115    9.98650   12.50000    2.70000    10.00000   10.00000   15.20000    0.00100     50     4160  4209     215
   116   10.00000   10.00000   -0.35000    10.00000   10.00000    0.35000    0.00100      3     4210  4212     216
   117   10.00000   10.00000   -0.35000    11.75820   11.77730   -2.70000    0.00100     25     4213  4237     217
   118   11.75820   11.77730   -2.70000    10.00000   10.00000  -15.20000    0.00100     50     4238  4287     218
   119   10.00000   10.00000   -0.35000    12.50000   10.01350   -2.70000    0.00100     25     4288  4312     219
   120   12.50000   10.01350   -2.70000    10.00000   10.00000  -15.20000    0.00100     50     4313  4362     220
   121   10.00000   10.00000   -0.35000    11.77980    7.77734   -2.70000    0.00100     25     4363  4387     221
   122   11.77980    7.77734   -2.70000    10.00000   10.00000  -15.20000    0.00100     50     4388  4437     222
   123   10.00000   10.00000   -0.35000    10.01350    7.50004   -2.70000    0.00100     25     4438  4462     223
   124   10.01350    7.50004   -2.70000    10.00000   10.00000  -15.20000    0.00100     50     4463  4512     224
   125   10.00000   10.00000   -0.35000     7.77985    7.75575   -2.70000    0.00100     25     4513  4537     225
   126    7.77985    7.75575   -2.70000    10.00000   10.00000  -15.20000    0.00100     50     4538  4587     226
   127   10.00000   10.00000   -0.35000     7.50004    9.98650   -2.70000    0.00100     25     4588  4612     227
   128    7.50004    9.98650   -2.70000    10.00000   10.00000  -15.20000    0.00100     50     4613  4662     228
   129   10.00000   10.00000   -0.35000     7.75826   11.75570   -2.70000    0.00100     25     4663  4687     229
   130    7.75826   11.75570   -2.70000    10.00000   10.00000  -15.20000    0.00100     50     4688  4737     230
   131   10.00000   10.00000   -0.35000     9.98650   12.50000   -2.70000    0.00100     25     4738  4762     231
   132    9.98650   12.50000   -2.70000    10.00000   10.00000  -15.20000    0.00100     50     4763  4812     232

   TOTAL SEGMENTS USED= 4812     NO. SEG. IN A SYMMETRIC CELL= 4812     SYMMETRY FLAG=  0


         - MULTIPLE WIRE JUNCTIONS -
 JUNCTION    SEGMENTS  (- FOR END 1, + FOR END 2)
     1        -1  -76 -151 -226 -301 -376 -451 -526  603
     2        75  150  225  300  375  450  525  600
     3      -601 -604 -679 -754 -829 -904 -979-1054-1129
     4       678  753  828  903  978 1053 1128 1203
     5     -1204-1279-1354-1429-1504-1579-1654-1729 1806
     6      1278 1353 1428 1503 1578 1653 1728 1803
     7     -1804-1807-1882-1957-2032-2107-2182-2257-2332
     8      1881 1956 2031 2106 2181 2256 2331 2406
     9     -2407-2482-2557-2632-2707-2782-2857-2932 3009
    10      2481 2556 2631 2706 2781 2856 2931 3006
    11     -3007-3010-3085-3160-3235-3310-3385-3460-3535
    12      3084 3159 3234 3309 3384 3459 3534 3609
    13     -3610-3685-3760-3835-3910-3985-4060-4135 4212
    14      3684 3759 3834 3909 3984 4059 4134 4209
    15     -4210-4213-4288-4363-4438-4513-4588-4663-4738
    16      4287 4362 4437 4512 4587 4662 4737 4812




                                 - - - - SEGMENTATION DATA - - - -

                                        COORDINATES IN METERS

                         I+ AND I- INDICATE THE SEGMENTS BEFORE AND AFTER I


  SEG.   COORDINATES OF SEG. CENTER     SEG.     ORIENTATION ANGLES    WIRE    CONNECTION DATA   TAG
  NO.       X         Y         Z       LENGTH     ALPHA     BETA      RADIUS    I-   I    I+    NO.
     1 -10.03516 -10.03555   0.39700   0.13724   43.22839-134.69047   0.00100   -76    1    2    101
     2 -10.10549 -10.10664   0.49100   0.13724   43.22839-134.69047   0.00100     1    2    3    101
     3 -10.17582 -10.17773   0.58500   0.13724   43.22839-134.69047   0.00100     2    3    4    101
     4 -10.24615 -10.24882   0.67900   0.13724   43.22839-134.69047   0.00100     3    4    5    101
     5 -10.31648 -10.31991   0.77300   0.13724   43.22839-134.69047   0.00100     4    5    6    101
     6 -10.38680 -10.39101   0.86700   0.13724   43.22839-134.69047   0.00100     5    6    7    101
     7 -10.45713 -10.46210   0.96100   0.13724   43.22839-134.69047   0.00100     6    7    8    101
     8 -10.52746 -10.53319   1.05500   0.13724   43.22839-134.69047   0.00100     7    8    9    101
     9 -10.59779 -10.60428   1.14900   0.13724   43.22839-134.69047   0.00100     8    9   10    101
    10 -10.66812 -10.67537   1.24300   0.13724   43.22839-134.69047   0.00100     9   10   11    101
    11 -10.73844 -10.74647   1.33700   0.13724   43.22839-134.69047   0.00100    10   11   12    101
    12 -10.80877 -10.81756   1.43100   0.13724   43.22839-134.69047   0.00100    11   12   13    101
    13 -10.87910 -10.88865   1.52500   0.13724   43.22839-134.69047   0.00100    12   13   14    101
    14 -10.94943 -10.95974   1.61900   0.13724   43.22839-134.69047   0.00100    13   14   15    101
    15 -11.01976 -11.03083   1.71300   0.13724   43.22839-134.69047   0.00100    14   15   16    101
    16 -11.09008 -11.10193   1.80700   0.13724   43.22839-134.69047   0.00100    15   16   17    101
    17 -11.16041 -11.17302   1.90100   0.13724   43.22839-134.69047   0.00100    16   17   18    101
    18 -11.23074 -11.24411   1.99500   0.13724   43.22839-134.69047   0.00100    17   18   19    101
    19 -11.30107 -11.31520   2.08900   0.13724   43.22839-134.69047   0.00100    18   19   20    101
    20 -11.37140 -11.38629   2.18300   0.13724   43.22839-134.69047   0.00100    19   20   21    101
    21 -11.44172 -11.45739   2.27700   0.13724   43.22839-134.69047   0.00100    20   21   22    101
    22 -11.51205 -11.52848   2.37100   0.13724   43.22839-134.69047   0.00100    21   22   23    101
    23 -11.58238 -11.59957   2.46500   0.13724   43.22839-134.69047   0.00100    22   23   24    101
    24 -11.65271 -11.67066   2.55900   0.13724   43.22839-134.69047   0.00100    23   24   25    101
    25 -11.72304 -11.74175   2.65300   0.13724   43.22839-134.69047   0.00100    24   25   26    101
    26 -11.74062 -11.75953   2.82500   0.25495   78.69001  45.30953   0.00100    25   26   27    102
    27 -11.70545 -11.72398   3.07500   0.25495   78.69001  45.30953   0.00100    26   27   28    102
    28 -11.67029 -11.68844   3.32500   0.25495   78.69001  45.30953   0.00100    27   28   29    102
    29 -11.63513 -11.65289   3.57500   0.25495   78.69001  45.30953   0.00100    28   29   30    102
    30 -11.59996 -11.61734   3.82500   0.25495   78.69001  45.30953   0.00100    29   30   31    102
    31 -11.56480 -11.58180   4.07500   0.25495   78.69001  45.30953   0.00100    30   31   32    102
    32 -11.52963 -11.54625   4.32500   0.25495   78.69001  45.30953   0.00100    31   32   33    102
    33 -11.49447 -11.51071   4.57500   0.25495   78.69001  45.30953   0.00100    32   33   34    102
    34 -11.45931 -11.47516   4.82500   0.25495   78.69001  45.30953   0.00100    33   34   35    102
    35 -11.42414 -11.43961   5.07500   0.25495   78.69001  45.30953   0.00100    34   35   36    102
    36 -11.38898 -11.40407   5.32500   0.25495   78.69001  45.30953   0.00100    35   36   37    102
    37 -11.35381 -11.36852   5.57500   0.25495   78.69001  45.30953   0.00100    36   37   38    102
    38 -11.31865 -11.33298   5.82500   0.25495   78.69001  45.30953   0.00100    37   38   39    102
    39 -11.28349 -11.29743   6.07500   0.25495   78.69001  45.30953   0.00100    38   39   40    102
    40 -11.24832 -11.26188   6.32500   0.25495   78.69001  45.30953   0.00100    39   40   41    102
    41 -11.21316 -11.22634   6.57500   0.25495   78.69001  45.30953   0.00100    40   41   42    102
    42 -11.17799 -11.19079   6.82500   0.25495   78.69001  45.30953   0.00100    41   42   43    102
    43 -11.14283 -11.15525   7.07500   0.25495   78.69001  45.30953   0.00100    42   43   44    102
    44 -11.10767 -11.11970   7.32500   0.25495   78.69001  45.30953   0.00100    43   44   45    102
    45 -11.07250 -11.08415   7.57500   0.25495   78.69001  45.30953   0.00100    44   45   46    102
    46 -11.03734 -11.04861   7.82500   0.25495   78.69001  45.30953   0.00100    45   46   47    102
    47 -11.00217 -11.01306   8.07500   0.25495   78.69001  45.30953   0.00100    46   47   48    102
    48 -10.96701 -10.97752   8.32500   0.25495   78.69001  45.30953   0.00100    47   48   49    102
    49 -10.93185 -10.94197   8.57500   0.25495   78.69001  45.30953   0.00100    48   49   50    102
    50 -10.89668 -10.90642   8.82500   0.25495   78.69001  45.30953   0.00100    49   50   51    102
    51 -10.86152 -10.87088   9.07500   0.25495   78.69001  45.30953   0.00100    50   51   52    102
    52 -10.82635 -10.83533   9.32500   0.25495   78.69001  45.30953   0.00100    51   52   53    102
    53 -10.79119 -10.79979   9.57500   0.25495   78.69001  45.30953   0.00100    52   53   54    102
    54 -10.75603 -10.76424   9.82500   0.25495   78.69001  45.30953   0.00100    53   54   55    102
    55 -10.72086 -10.72869  10.07500   0.25495   78.69001  45.30953   0.00100    54   55   56    102
    56 -10.68570 -10.69315  10.32500   0.25495   78.69001  45.30953   0.00100    55   56   57    102
    57 -10.65053 -10.65760  10.57500   0.25495   78.69001  45.30953   0.00100    56   57   58    102
    58 -10.61537 -10.62206  10.82500   0.25495   78.69001  45.30953   0.00100    57   58   59    102
    59 -10.58021 -10.58651  11.07500   0.25495   78.69001  45.30953   0.00100    58   59   60    102
    60 -10.54504 -10.55096  11.32500   0.25495   78.69001  45.30953   0.00100    59   60   61    102
    61 -10.50988 -10.51542  11.57500   0.25495   78.69001  45.30953   0.00100    60   61   62    102
    62 -10.47471 -10.47987  11.82500   0.25495   78.69001  45.30953   0.00100    61   62   63    102
    63 -10.43955 -10.44432  12.07500   0.25495   78.69001  45.30953   0.00100    62   63   64    102
    64 -10.40439 -10.40878  12.32500   0.25495   78.69001  45.30953   0.00100    63   64   65    102
    65 -10.36922 -10.37323  12.57500   0.25495   78.69001  45.30953   0.00100    64   65   66    102
    66 -10.33406 -10.33769  12.82500   0.25495   78.69001  45.30953   0.00100    65   66   67    102
    67 -10.29889 -10.30214  13.07500   0.25495   78.69001  45.30953   0.00100    66   67   68    102
    68 -10.26373 -10.26660  13.32500   0.25495   78.69001  45.30953   0.00100    67   68   69    102
    69 -10.22857 -10.23105  13.57500   0.25495   78.69001  45.30953   0.00100    68   69   70    102
    70 -10.19340 -10.19550  13.82500   0.25495   78.69001  45.30953   0.00100    69   70   71    102
    71 -10.15824 -10.15996  14.07500   0.25495   78.69001  45.30953   0.00100    70   71   72    102
    72 -10.12307 -10.12441  14.32500   0.25495   78.69001  45.30953   0.00100    71   72   73    102
    73 -10.08791 -10.08887  14.57500   0.25495   78.69001  45.30953   0.00100    72   73   74    102
    74 -10.05275 -10.05332  14.82500   0.25495   78.69001  45.30953   0.00100    73   74   75    102
    75 -10.01758 -10.01777  15.07500   0.25495   78.69001  45.30953   0.00100    74   75 -150    102
    76 -10.05000 -10.00027   0.39700   0.13725   43.22811-179.69061   0.00100  -151   76   77    103
    77 -10.15000 -10.00081   0.49100   0.13725   43.22811-179.69061   0.00100    76   77   78    103
    78 -10.25000 -10.00135   0.58500   0.13725   43.22811-179.69061   0.00100    77   78   79    103
    79 -10.35000 -10.00189   0.67900   0.13725   43.22811-179.69061   0.00100    78   79   80    103
    80 -10.45000 -10.00243   0.77300   0.13725   43.22811-179.69061   0.00100    79   80   81    103
    81 -10.55000 -10.00297   0.86700   0.13725   43.22811-179.69061   0.00100    80   81   82    103
    82 -10.65000 -10.00351   0.96100   0.13725   43.22811-179.69061   0.00100    81   82   83    103
    83 -10.75000 -10.00405   1.05500   0.13725   43.22811-179.69061   0.00100    82   83   84    103
    84 -10.85000 -10.00459   1.14900   0.13725   43.22811-179.69061   0.00100    83   84   85    103
    85 -10.95000 -10.00513   1.24300   0.13725   43.22811-179.69061   0.00100    84   85   86    103
    86 -11.05000 -10.00567   1.33700   0.13725   43.22811-179.69061   0.00100    85   86   87    103
    87 -11.15000 -10.00621   1.43100   0.13725   43.22811-179.69061   0.00100    86   87   88    103
    88 -11.25000 -10.00675   1.52500   0.13725   43.22811-179.69061   0.00100    87   88   89    103
    89 -11.35000 -10.00729   1.61900   0.13725   43.22811-179.69061   0.00100    88   89   90    103
    90 -11.45000 -10.00783   1.71300   0.13725   43.22811-179.69061   0.00100    89   90   91    103
    91 -11.55000 -10.00837   1.80700   0.13725   43.22811-179.69061   0.00100    90   91   92    103
    92 -11.65000 -10.00891   1.90100   0.13725   43.22811-179.69061   0.00100    91   92   93    103
    93 -11.75000 -10.00945   1.99500   0.13725   43.22811-179.69061   0.00100    92   93   94    103
    94 -11.85000 -10.00999   2.08900   0.13725   43.22811-179.69061   0.00100    93   94   95    103
    95 -11.95000 -10.01053   2.18300   0.13725   43.22811-179.69061   0.00100    94   95   96    103
    96 -12.05000 -10.01107   2.27700   0.13725   43.22811-179.69061   0.00100    95   96   97    103
    97 -12.15000 -10.01161   2.37100   0.13725   43.22811-179.69061   0.00100    96   97   98    103
    98 -12.25000 -10.01215   2.46500   0.13725   43.22811-179.69061   0.00100    97   98   99    103
    99 -12.35000 -10.01269   2.55900   0.13725   43.22811-179.69061   0.00100    98   99  100    103
   100 -12.45000 -10.01323   2.65300   0.13725   43.22811-179.69061   0.00100    99  100  101    103
   101 -12.47500 -10.01337   2.82500   0.25495   78.68991   0.30939   0.00100   100  101  102    104
   102 -12.42500 -10.01310   3.07500   0.25495   78.68991   0.30939   0.00100   101  102  103    104
   103 -12.37500 -10.01282   3.32500   0.25495   78.68991   0.30939   0.00100   102  103  104    104
   104 -12.32500 -10.01256   3.57500   0.25495   78.68991   0.30939   0.00100   103  104  105    104
   105 -12.27500 -10.01229   3.82500   0.25495   78.68991   0.30939   0.00100   104  105  106    104
   106 -12.22500 -10.01202   4.07500   0.25495   78.68991   0.30939   0.00100   105  106  107    104
   107 -12.17500 -10.01175   4.32500   0.25495   78.68991   0.30939   0.00100   106  107  108    104
   108 -12.12500 -10.01148   4.57500   0.25495   78.68991   0.30939   0.00100   107  108  109    104
   109 -12.07500 -10.01121   4.82500   0.25495   78.68991   0.30939   0.00100   108  109  110    104
   110 -12.02500 -10.01094   5.07500   0.25495   78.68991   0.30939   0.00100   109  110  111    104
   111 -11.97500 -10.01066   5.32500   0.25495   78.68991   0.30939   0.00100   110  111  112    104
   112 -11.92500 -10.01040   5.57500   0.25495   78.68991   0.30939   0.00100   111  112  113    104
   113 -11.87500 -10.01013   5.82500   0.25495   78.68991   0.30939   0.00100   112  113  114    104
   114 -11.82500 -10.00986   6.07500   0.25495   78.68991   0.30939   0.00100   113  114  115    104
   115 -11.77500 -10.00959   6.32500   0.25495   78.68991   0.30939   0.00100   114  115  116    104
   116 -11.72500 -10.00932   6.57500   0.25495   78.68991   0.30939   0.00100   115  116  117    104
   117 -11.67500 -10.00905   6.82500   0.25495   78.68991   0.30939   0.00100   116  117  118    104
   118 -11.62500 -10.00878   7.07500   0.25495   78.68991   0.30939   0.00100   117  118  119    104
   119 -11.57500 -10.00851   7.32500   0.25495   78.68991   0.30939   0.00100   118  119  120    104
   120 -11.52500 -10.00824   7.57500   0.25495   78.68991   0.30939   0.00100   119  120  121    104
   121 -11.47500 -10.00797   7.82500   0.25495   78.68991   0.30939   0.00100   120  121  122    104
   122 -11.42500 -10.00770   8.07500   0.25495   78.68991   0.30939   0.00100   121  122  123    104
   123 -11.37500 -10.00743   8.32500   0.25495   78.68991   0.30939   0.00100   122  123  124    104
   124 -11.32500 -10.00716   8.57500   0.25495   78.68991   0.30939   0.00100   123  124  125    104
   125 -11.27500 -10.00689   8.82500   0.25495   78.68991   0.30939   0.00100   124  125  126    104
   126 -11.22500 -10.00662   9.07500   0.25495   78.68991   0.30939   0.00100   125  126  127    104
   127 -11.17500 -10.00635   9.32500   0.25495   78.68991   0.30939   0.00100   126  127  128    104
   128 -11.12500 -10.00607   9.57500   0.25495   78.68991   0.30939   0.00100   127  128  129    104
   129 -11.07500 -10.00581   9.82500   0.25495   78.68991   0.30939   0.00100   128  129  130    104
   130 -11.02500 -10.00554  10.07500   0.25495   78.68991   0.30939   0.00100   129  130  131    104
   131 -10.97500 -10.00527  10.32500   0.25495   78.68991   0.30939   0.00100   130  131  132    104
   132 -10.92500 -10.00500  10.57500   0.25495   78.68991   0.30939   0.00100   131  132  133    104
   133 -10.87500 -10.00473  10.82500   0.25495   78.68991   0.30939   0.00100   132  133  134    104
   134 -10.82500 -10.00446  11.07500   0.25495   78.68991   0.30939   0.00100   133  134  135    104
   135 -10.77500 -10.00419  11.32500   0.25495   78.68991   0.30939   0.00100   134  135  136    104
   136 -10.72500 -10.00391  11.57500   0.25495   78.68991   0.30939   0.00100   135  136  137    104
   137 -10.67500 -10.00365  11.82500   0.25495   78.68991   0.30939   0.00100   136  137  138    104
   138 -10.62500 -10.00338  12.07500   0.25495   78.68991   0.30939   0.00100   137  138  139    104
   139 -10.57500 -10.00311  12.32500   0.25495   78.68991   0.30939   0.00100   138  139  140    104
   140 -10.52500 -10.00284  12.57500   0.25495   78.68991   0.30939   0.00100   139  140  141    104
   141 -10.47500 -10.00257  12.82500   0.25495   78.68991   0.30939   0.00100   140  141  142    104
   142 -10.42500 -10.00230  13.07500   0.25495   78.68991   0.30939   0.00100   141  142  143    104
   143 -10.37500 -10.00203  13.32500   0.25495   78.68991   0.30939   0.00100   142  143  144    104
   144 -10.32500 -10.00175  13.57500   0.25495   78.68991   0.30939   0.00100   143  144  145    104
   145 -10.27500 -10.00149  13.82500   0.25495   78.68991   0.30939   0.00100   144  145  146    104
   146 -10.22500 -10.00122  14.07500   0.25495   78.68991   0.30939   0.00100   145  146  147    104
   147 -10.17500 -10.00095  14.32500   0.25495   78.68991   0.30939   0.00100   146  147  148    104
   148 -10.12500 -10.00068  14.57500   0.25495   78.68991   0.30939   0.00100   147  148  149    104
   149 -10.07500 -10.00041  14.82500   0.25495   78.68991   0.30939   0.00100   148  149  150    104
   150 -10.02500 -10.00014  15.07500   0.25495   78.68991   0.30939   0.00100   149  150 -225    104
   151 -10.03560  -9.95555   0.39700   0.14768   39.53297 128.68608   0.00100  -226  151  152    105
   152 -10.10679  -9.86664   0.49100   0.14768   39.53297 128.68608   0.00100   151  152  153    105
   153 -10.17798  -9.77773   0.58500   0.14768   39.53297 128.68608   0.00100   152  153  154    105
   154 -10.24917  -9.68883   0.67900   0.14768   39.53297 128.68608   0.00100   153  154  155    105
   155 -10.32036  -9.59992   0.77300   0.14768   39.53297 128.68608   0.00100   154  155  156    105
   156 -10.39156  -9.51101   0.86700   0.14768   39.53297 128.68608   0.00100   155  156  157    105
   157 -10.46275  -9.42211   0.96100   0.14768   39.53297 128.68608   0.00100   156  157  158    105
   158 -10.53394  -9.33320   1.05500   0.14768   39.53297 128.68608   0.00100   157  158  159    105
   159 -10.60513  -9.24430   1.14900   0.14768   39.53297 128.68608   0.00100   158  159  160    105
   160 -10.67632  -9.15539   1.24300   0.14768   39.53297 128.68608   0.00100   159  160  161    105
   161 -10.74752  -9.06648   1.33700   0.14768   39.53297 128.68608   0.00100   160  161  162    105
   162 -10.81871  -8.97758   1.43100   0.14768   39.53297 128.68608   0.00100   161  162  163    105
   163 -10.88990  -8.88867   1.52500   0.14768   39.53297 128.68608   0.00100   162  163  164    105
   164 -10.96109  -8.79976   1.61900   0.14768   39.53297 128.68608   0.00100   163  164  165    105
   165 -11.03228  -8.71086   1.71300   0.14768   39.53297 128.68608   0.00100   164  165  166    105
   166 -11.10348  -8.62195   1.80700   0.14768   39.53297 128.68608   0.00100   165  166  167    105
   167 -11.17467  -8.53304   1.90100   0.14768   39.53297 128.68608   0.00100   166  167  168    105
   168 -11.24586  -8.44414   1.99500   0.14768   39.53297 128.68608   0.00100   167  168  169    105
   169 -11.31705  -8.35523   2.08900   0.14768   39.53297 128.68608   0.00100   168  169  170    105
   170 -11.38824  -8.26633   2.18300   0.14768   39.53297 128.68608   0.00100   169  170  171    105
   171 -11.45944  -8.17742   2.27700   0.14768   39.53297 128.68608   0.00100   170  171  172    105
   172 -11.53063  -8.08851   2.37100   0.14768   39.53297 128.68608   0.00100   171  172  173    105
   173 -11.60182  -7.99961   2.46500   0.14768   39.53297 128.68608   0.00100   172  173  174    105
   174 -11.67301  -7.91070   2.55900   0.14768   39.53297 128.68608   0.00100   173  174  175    105
   175 -11.74420  -7.82179   2.65300   0.14768   39.53297 128.68608   0.00100   174  175  176    105
   176 -11.76200  -7.79957   2.82500   0.25640   77.16728 -51.31392   0.00100   175  176  177    106
   177 -11.72641  -7.84402   3.07500   0.25640   77.16728 -51.31392   0.00100   176  177  178    106
   178 -11.69081  -7.88847   3.32500   0.25640   77.16728 -51.31392   0.00100   177  178  179    106
   179 -11.65521  -7.93293   3.57500   0.25640   77.16728 -51.31392   0.00100   178  179  180    106
   180 -11.61962  -7.97738   3.82500   0.25640   77.16728 -51.31392   0.00100   179  180  181    106
   181 -11.58402  -8.02183   4.07500   0.25640   77.16728 -51.31392   0.00100   180  181  182    106
   182 -11.54843  -8.06629   4.32500   0.25640   77.16728 -51.31392   0.00100   181  182  183    106
   183 -11.51283  -8.11074   4.57500   0.25640   77.16728 -51.31392   0.00100   182  183  184    106
   184 -11.47723  -8.15519   4.82500   0.25640   77.16728 -51.31392   0.00100   183  184  185    106
   185 -11.44164  -8.19965   5.07500   0.25640   77.16728 -51.31392   0.00100   184  185  186    106
   186 -11.40604  -8.24410   5.32500   0.25640   77.16728 -51.31392   0.00100   185  186  187    106
   187 -11.37045  -8.28855   5.57500   0.25640   77.16728 -51.31392   0.00100   186  187  188    106
   188 -11.33485  -8.33301   5.82500   0.25640   77.16728 -51.31392   0.00100   187  188  189    106
   189 -11.29925  -8.37746   6.07500   0.25640   77.16728 -51.31392   0.00100   188  189  190    106
   190 -11.26366  -8.42191   6.32500   0.25640   77.16728 -51.31392   0.00100   189  190  191    106
   191 -11.22806  -8.46636   6.57500   0.25640   77.16728 -51.31392   0.00100   190  191  192    106
   192 -11.19247  -8.51082   6.82500   0.25640   77.16728 -51.31392   0.00100   191  192  193    106
   193 -11.15687  -8.55527   7.07500   0.25640   77.16728 -51.31392   0.00100   192  193  194    106
   194 -11.12127  -8.59972   7.32500   0.25640   77.16728 -51.31392   0.00100   193  194  195    106
   195 -11.08568  -8.64418   7.57500   0.25640   77.16728 -51.31392   0.00100   194  195  196    106
   196 -11.05008  -8.68863   7.82500   0.25640   77.16728 -51.31392   0.00100   195  196  197    106
   197 -11.01449  -8.73308   8.07500   0.25640   77.16728 -51.31392   0.00100   196  197  198    106
   198 -10.97889  -8.77754   8.32500   0.25640   77.16728 -51.31392   0.00100   197  198  199    106
   199 -10.94329  -8.82199   8.57500   0.25640   77.16728 -51.31392   0.00100   198  199  200    106
   200 -10.90770  -8.86644   8.82500   0.25640   77.16728 -51.31392   0.00100   199  200  201    106
   201 -10.87210  -8.91090   9.07500   0.25640   77.16728 -51.31392   0.00100   200  201  202    106
   202 -10.83651  -8.95535   9.32500   0.25640   77.16728 -51.31392   0.00100   201  202  203    106
   203 -10.80091  -8.99980   9.57500   0.25640   77.16728 -51.31392   0.00100   202  203  204    106
   204 -10.76531  -9.04426   9.82500   0.25640   77.16728 -51.31392   0.00100   203  204  205    106
   205 -10.72972  -9.08871  10.07500   0.25640   77.16728 -51.31392   0.00100   204  205  206    106
   206 -10.69412  -9.13316  10.32500   0.25640   77.16728 -51.31392   0.00100   205  206  207    106
   207 -10.65853  -9.17762  10.57500   0.25640   77.16728 -51.31392   0.00100   206  207  208    106
   208 -10.62293  -9.22207  10.82500   0.25640   77.16728 -51.31392   0.00100   207  208  209    106
   209 -10.58733  -9.26652  11.07500   0.25640   77.16728 -51.31392   0.00100   208  209  210    106
   210 -10.55174  -9.31098  11.32500   0.25640   77.16728 -51.31392   0.00100   209  210  211    106
   211 -10.51614  -9.35543  11.57500   0.25640   77.16728 -51.31392   0.00100   210  211  212    106
   212 -10.48055  -9.39988  11.82500   0.25640   77.16728 -51.31392   0.00100   211  212  213    106
   213 -10.44495  -9.44433  12.07500   0.25640   77.16728 -51.31392   0.00100   212  213  214    106
   214 -10.40935  -9.48879  12.32500   0.25640   77.16728 -51.31392   0.00100   213  214  215    106
   215 -10.37376  -9.53324  12.57500   0.25640   77.16728 -51.31392   0.00100   214  215  216    106
   216 -10.33816  -9.57769  12.82500   0.25640   77.16728 -51.31392   0.00100   215  216  217    106
   217 -10.30257  -9.62215  13.07500   0.25640   77.16728 -51.31392   0.00100   216  217  218    106
   218 -10.26697  -9.66660  13.32500   0.25640   77.16728 -51.31392   0.00100   217  218  219    106
   219 -10.23137  -9.71105  13.57500   0.25640   77.16728 -51.31392   0.00100   218  219  220    106
   220 -10.19578  -9.75551  13.82500   0.25640   77.16728 -51.31392   0.00100   219  220  221    106
   221 -10.16018  -9.79996  14.07500   0.25640   77.16728 -51.31392   0.00100   220  221  222    106
   222 -10.12459  -9.84441  14.32500   0.25640   77.16728 -51.31392   0.00100   221  222  223    106
   223 -10.08899  -9.88887  14.57500   0.25640   77.16728 -51.31392   0.00100   222  223  224    106
   224 -10.05339  -9.93332  14.82500   0.25640   77.16728 -51.31392   0.00100   223  224  225    106
   225 -10.01780  -9.97777  15.07500   0.25640   77.16728 -51.31392   0.00100   224  225 -300    106
   226 -10.00027  -9.95000   0.39700   0.13724   43.22857  90.30940   0.00100  -301  226  227    107
   227 -10.00081  -9.85000   0.49100   0.13724   43.22857  90.30940   0.00100   226  227  228    107
   228 -10.00135  -9.75000   0.58500   0.13724   43.22857  90.30940   0.00100   227  228  229    107
   229 -10.00189  -9.65001   0.67900   0.13724   43.22857  90.30940   0.00100   228  229  230    107
   230 -10.00243  -9.55001   0.77300   0.13724   43.22857  90.30940   0.00100   229  230  231    107
   231 -10.00297  -9.45001   0.86700   0.13724   43.22857  90.30940   0.00100   230  231  232    107
   232 -10.00351  -9.35001   0.96100   0.13724   43.22857  90.30940   0.00100   231  232  233    107
   233 -10.00405  -9.25001   1.05500   0.13724   43.22857  90.30940   0.00100   232  233  234    107
   234 -10.00459  -9.15001   1.14900   0.13724   43.22857  90.30940   0.00100   233  234  235    107
   235 -10.00513  -9.05002   1.24300   0.13724   43.22857  90.30940   0.00100   234  235  236    107
   236 -10.00567  -8.95002   1.33700   0.13724   43.22857  90.30940   0.00100   235  236  237    107
   237 -10.00621  -8.85002   1.43100   0.13724   43.22857  90.30940   0.00100   236  237  238    107
   238 -10.00675  -8.75002   1.52500   0.13724   43.22857  90.30940   0.00100   237  238  239    107
   239 -10.00729  -8.65002   1.61900   0.13724   43.22857  90.30940   0.00100   238  239  240    107
   240 -10.00783  -8.55002   1.71300   0.13724   43.22857  90.30940   0.00100   239  240  241    107
   241 -10.00837  -8.45002   1.80700   0.13724   43.22857  90.30940   0.00100   240  241  242    107
   242 -10.00891  -8.35003   1.90100   0.13724   43.22857  90.30940   0.00100   241  242  243    107
   243 -10.00945  -8.25003   1.99500   0.13724   43.22857  90.30940   0.00100   242  243  244    107
   244 -10.00999  -8.15003   2.08900   0.13724   43.22857  90.30940   0.00100   243  244  245    107
   245 -10.01053  -8.05003   2.18300   0.13724   43.22857  90.30940   0.00100   244  245  246    107
   246 -10.01107  -7.95003   2.27700   0.13724   43.22857  90.30940   0.00100   245  246  247    107
   247 -10.01161  -7.85003   2.37100   0.13724   43.22857  90.30940   0.00100   246  247  248    107
   248 -10.01215  -7.75004   2.46500   0.13724   43.22857  90.30940   0.00100   247  248  249    107
   249 -10.01269  -7.65004   2.55900   0.13724   43.22857  90.30940   0.00100   248  249  250    107
   250 -10.01323  -7.55004   2.65300   0.13724   43.22857  90.30940   0.00100   249  250  251    107
   251 -10.01337  -7.52504   2.82500   0.25495   78.69008 -89.69060   0.00100   250  251  252    108
   252 -10.01310  -7.57504   3.07500   0.25495   78.69008 -89.69060   0.00100   251  252  253    108
   253 -10.01282  -7.62504   3.32500   0.25495   78.69008 -89.69060   0.00100   252  253  254    108
   254 -10.01256  -7.67504   3.57500   0.25495   78.69008 -89.69060   0.00100   253  254  255    108
   255 -10.01229  -7.72504   3.82500   0.25495   78.69008 -89.69060   0.00100   254  255  256    108
   256 -10.01202  -7.77504   4.07500   0.25495   78.69008 -89.69060   0.00100   255  256  257    108
   257 -10.01175  -7.82503   4.32500   0.25495   78.69008 -89.69060   0.00100   256  257  258    108
   258 -10.01148  -7.87503   4.57500   0.25495   78.69008 -89.69060   0.00100   257  258  259    108
   259 -10.01121  -7.92503   4.82500   0.25495   78.69008 -89.69060   0.00100   258  259  260    108
   260 -10.01094  -7.97503   5.07500   0.25495   78.69008 -89.69060   0.00100   259  260  261    108
   261 -10.01066  -8.02503   5.32500   0.25495   78.69008 -89.69060   0.00100   260  261  262    108
   262 -10.01040  -8.07503   5.57500   0.25495   78.69008 -89.69060   0.00100   261  262  263    108
   263 -10.01013  -8.12503   5.82500   0.25495   78.69008 -89.69060   0.00100   262  263  264    108
   264 -10.00986  -8.17503   6.07500   0.25495   78.69008 -89.69060   0.00100   263  264  265    108
   265 -10.00959  -8.22503   6.32500   0.25495   78.69008 -89.69060   0.00100   264  265  266    108
   266 -10.00932  -8.27503   6.57500   0.25495   78.69008 -89.69060   0.00100   265  266  267    108
   267 -10.00905  -8.32503   6.82500   0.25495   78.69008 -89.69060   0.00100   266  267  268    108
   268 -10.00878  -8.37503   7.07500   0.25495   78.69008 -89.69060   0.00100   267  268  269    108
   269 -10.00851  -8.42503   7.32500   0.25495   78.69008 -89.69060   0.00100   268  269  270    108
   270 -10.00824  -8.47502   7.57500   0.25495   78.69008 -89.69060   0.00100   269  270  271    108
   271 -10.00797  -8.52502   7.82500   0.25495   78.69008 -89.69060   0.00100   270  271  272    108
   272 -10.00770  -8.57502   8.07500   0.25495   78.69008 -89.69060   0.00100   271  272  273    108
   273 -10.00743  -8.62502   8.32500   0.25495   78.69008 -89.69060   0.00100   272  273  274    108
   274 -10.00716  -8.67502   8.57500   0.25495   78.69008 -89.69060   0.00100   273  274  275    108
   275 -10.00689  -8.72502   8.82500   0.25495   78.69008 -89.69060   0.00100   274  275  276    108
   276 -10.00662  -8.77502   9.07500   0.25495   78.69008 -89.69060   0.00100   275  276  277    108
   277 -10.00635  -8.82502   9.32500   0.25495   78.69008 -89.69060   0.00100   276  277  278    108
   278 -10.00607  -8.87502   9.57500   0.25495   78.69008 -89.69060   0.00100   277  278  279    108
   279 -10.00581  -8.92502   9.82500   0.25495   78.69008 -89.69060   0.00100   278  279  280    108
   280 -10.00554  -8.97502  10.07500   0.25495   78.69008 -89.69060   0.00100   279  280  281    108
   281 -10.00527  -9.02502  10.32500   0.25495   78.69008 -89.69060   0.00100   280  281  282    108
   282 -10.00500  -9.07501  10.57500   0.25495   78.69008 -89.69060   0.00100   281  282  283    108
   283 -10.00473  -9.12501  10.82500   0.25495   78.69008 -89.69060   0.00100   282  283  284    108
   284 -10.00446  -9.17501  11.07500   0.25495   78.69008 -89.69060   0.00100   283  284  285    108
   285 -10.00419  -9.22501  11.32500   0.25495   78.69008 -89.69060   0.00100   284  285  286    108
   286 -10.00391  -9.27501  11.57500   0.25495   78.69008 -89.69060   0.00100   285  286  287    108
   287 -10.00365  -9.32501  11.82500   0.25495   78.69008 -89.69060   0.00100   286  287  288    108
   288 -10.00338  -9.37501  12.07500   0.25495   78.69008 -89.69060   0.00100   287  288  289    108
   289 -10.00311  -9.42501  12.32500   0.25495   78.69008 -89.69060   0.00100   288  289  290    108
   290 -10.00284  -9.47501  12.57500   0.25495   78.69008 -89.69060   0.00100   289  290  291    108
   291 -10.00257  -9.52501  12.82500   0.25495   78.69008 -89.69060   0.00100   290  291  292    108
   292 -10.00230  -9.57501  13.07500   0.25495   78.69008 -89.69060   0.00100   291  292  293    108
   293 -10.00203  -9.62501  13.32500   0.25495   78.69008 -89.69060   0.00100   292  293  294    108
   294 -10.00175  -9.67501  13.57500   0.25495   78.69008 -89.69060   0.00100   293  294  295    108
   295 -10.00149  -9.72500  13.82500   0.25495   78.69008 -89.69060   0.00100   294  295  296    108
   296 -10.00122  -9.77500  14.07500   0.25495   78.69008 -89.69060   0.00100   295  296  297    108
   297 -10.00095  -9.82500  14.32500   0.25495   78.69008 -89.69060   0.00100   296  297  298    108
   298 -10.00068  -9.87500  14.57500   0.25495   78.69008 -89.69060   0.00100   297  298  299    108
   299 -10.00041  -9.92500  14.82500   0.25495   78.69008 -89.69060   0.00100   298  299  300    108
   300 -10.00014  -9.97500  15.07500   0.25495   78.69008 -89.69060   0.00100   299  300 -375    108
   301  -9.95560  -9.95511   0.39700   0.15742   36.66444  45.30929   0.00100  -376  301  302    109
   302  -9.86679  -9.86535   0.49100   0.15742   36.66444  45.30929   0.00100   301  302  303    109
   303  -9.77799  -9.77557   0.58500   0.15742   36.66444  45.30929   0.00100   302  303  304    109
   304  -9.68918  -9.68580   0.67900   0.15742   36.66444  45.30929   0.00100   303  304  305    109
   305  -9.60037  -9.59604   0.77300   0.15742   36.66444  45.30929   0.00100   304  305  306    109
   306  -9.51157  -9.50626   0.86700   0.15742   36.66444  45.30929   0.00100   305  306  307    109
   307  -9.42276  -9.41650   0.96100   0.15742   36.66444  45.30929   0.00100   306  307  308    109
   308  -9.33395  -9.32672   1.05500   0.15742   36.66444  45.30929   0.00100   307  308  309    109
   309  -9.24515  -9.23696   1.14900   0.15742   36.66444  45.30929   0.00100   308  309  310    109
   310  -9.15634  -9.14719   1.24300   0.15742   36.66444  45.30929   0.00100   309  310  311    109
   311  -9.06754  -9.05741   1.33700   0.15742   36.66444  45.30929   0.00100   310  311  312    109
   312  -8.97873  -8.96765   1.43100   0.15742   36.66444  45.30929   0.00100   311  312  313    109
   313  -8.88992  -8.87787   1.52500   0.15742   36.66444  45.30929   0.00100   312  313  314    109
   314  -8.80112  -8.78810   1.61900   0.15742   36.66444  45.30929   0.00100   313  314  315    109
   315  -8.71231  -8.69834   1.71300   0.15742   36.66444  45.30929   0.00100   314  315  316    109
   316  -8.62351  -8.60856   1.80700   0.15742   36.66444  45.30929   0.00100   315  316  317    109
   317  -8.53470  -8.51880   1.90100   0.15742   36.66444  45.30929   0.00100   316  317  318    109
   318  -8.44590  -8.42902   1.99500   0.15742   36.66444  45.30929   0.00100   317  318  319    109
   319  -8.35709  -8.33926   2.08900   0.15742   36.66444  45.30929   0.00100   318  319  320    109
   320  -8.26828  -8.24949   2.18300   0.15742   36.66444  45.30929   0.00100   319  320  321    109
   321  -8.17948  -8.15971   2.27700   0.15742   36.66444  45.30929   0.00100   320  321  322    109
   322  -8.09067  -8.06995   2.37100   0.15742   36.66444  45.30929   0.00100   321  322  323    109
   323  -8.00186  -7.98018   2.46500   0.15742   36.66444  45.30929   0.00100   322  323  324    109
   324  -7.91306  -7.89040   2.55900   0.15742   36.66444  45.30929   0.00100   323  324  325    109
   325  -7.82425  -7.80063   2.65300   0.15742   36.66444  45.30929   0.00100   324  325  326    109
   326  -7.80205  -7.77819   2.82500   0.25785   75.82642-134.69071   0.00100   325  326  327    110
   327  -7.84645  -7.82308   3.07500   0.25785   75.82642-134.69071   0.00100   326  327  328    110
   328  -7.89086  -7.86796   3.32500   0.25785   75.82642-134.69071   0.00100   327  328  329    110
   329  -7.93526  -7.91285   3.57500   0.25785   75.82642-134.69071   0.00100   328  329  330    110
   330  -7.97966  -7.95773   3.82500   0.25785   75.82642-134.69071   0.00100   329  330  331    110
   331  -8.02407  -8.00262   4.07500   0.25785   75.82642-134.69071   0.00100   330  331  332    110
   332  -8.06847  -8.04750   4.32500   0.25785   75.82642-134.69071   0.00100   331  332  333    110
   333  -8.11287  -8.09239   4.57500   0.25785   75.82642-134.69071   0.00100   332  333  334    110
   334  -8.15728  -8.13727   4.82500   0.25785   75.82642-134.69071   0.00100   333  334  335    110
   335  -8.20168  -8.18216   5.07500   0.25785   75.82642-134.69071   0.00100   334  335  336    110
   336  -8.24608  -8.22704   5.32500   0.25785   75.82642-134.69071   0.00100   335  336  337    110
   337  -8.29048  -8.27193   5.57500   0.25785   75.82642-134.69071   0.00100   336  337  338    110
   338  -8.33489  -8.31681   5.82500   0.25785   75.82642-134.69071   0.00100   337  338  339    110
   339  -8.37929  -8.36170   6.07500   0.25785   75.82642-134.69071   0.00100   338  339  340    110
   340  -8.42369  -8.40658   6.32500   0.25785   75.82642-134.69071   0.00100   339  340  341    110
   341  -8.46810  -8.45147   6.57500   0.25785   75.82642-134.69071   0.00100   340  341  342    110
   342  -8.51250  -8.49635   6.82500   0.25785   75.82642-134.69071   0.00100   341  342  343    110
   343  -8.55690  -8.54124   7.07500   0.25785   75.82642-134.69071   0.00100   342  343  344    110
   344  -8.60131  -8.58612   7.32500   0.25785   75.82642-134.69071   0.00100   343  344  345    110
   345  -8.64571  -8.63101   7.57500   0.25785   75.82642-134.69071   0.00100   344  345  346    110
   346  -8.69011  -8.67589   7.82500   0.25785   75.82642-134.69071   0.00100   345  346  347    110
   347  -8.73451  -8.72078   8.07500   0.25785   75.82642-134.69071   0.00100   346  347  348    110
   348  -8.77892  -8.76566   8.32500   0.25785   75.82642-134.69071   0.00100   347  348  349    110
   349  -8.82332  -8.81055   8.57500   0.25785   75.82642-134.69071   0.00100   348  349  350    110
   350  -8.86772  -8.85543   8.82500   0.25785   75.82642-134.69071   0.00100   349  350  351    110
   351  -8.91213  -8.90032   9.07500   0.25785   75.82642-134.69071   0.00100   350  351  352    110
   352  -8.95653  -8.94520   9.32500   0.25785   75.82642-134.69071   0.00100   351  352  353    110
   353  -9.00093  -8.99009   9.57500   0.25785   75.82642-134.69071   0.00100   352  353  354    110
   354  -9.04534  -9.03497   9.82500   0.25785   75.82642-134.69071   0.00100   353  354  355    110
   355  -9.08974  -9.07986  10.07500   0.25785   75.82642-134.69071   0.00100   354  355  356    110
   356  -9.13414  -9.12474  10.32500   0.25785   75.82642-134.69071   0.00100   355  356  357    110
   357  -9.17854  -9.16963  10.57500   0.25785   75.82642-134.69071   0.00100   356  357  358    110
   358  -9.22295  -9.21451  10.82500   0.25785   75.82642-134.69071   0.00100   357  358  359    110
   359  -9.26735  -9.25940  11.07500   0.25785   75.82642-134.69071   0.00100   358  359  360    110
   360  -9.31175  -9.30428  11.32500   0.25785   75.82642-134.69071   0.00100   359  360  361    110
   361  -9.35616  -9.34917  11.57500   0.25785   75.82642-134.69071   0.00100   360  361  362    110
   362  -9.40056  -9.39405  11.82500   0.25785   75.82642-134.69071   0.00100   361  362  363    110
   363  -9.44496  -9.43894  12.07500   0.25785   75.82642-134.69071   0.00100   362  363  364    110
   364  -9.48937  -9.48382  12.32500   0.25785   75.82642-134.69071   0.00100   363  364  365    110
   365  -9.53377  -9.52871  12.57500   0.25785   75.82642-134.69071   0.00100   364  365  366    110
   366  -9.57817  -9.57359  12.82500   0.25785   75.82642-134.69071   0.00100   365  366  367    110
   367  -9.62257  -9.61848  13.07500   0.25785   75.82642-134.69071   0.00100   366  367  368    110
   368  -9.66698  -9.66336  13.32500   0.25785   75.82642-134.69071   0.00100   367  368  369    110
   369  -9.71138  -9.70825  13.57500   0.25785   75.82642-134.69071   0.00100   368  369  370    110
   370  -9.75578  -9.75313  13.82500   0.25785   75.82642-134.69071   0.00100   369  370  371    110
   371  -9.80019  -9.79802  14.07500   0.25785   75.82642-134.69071   0.00100   370  371  372    110
   372  -9.84459  -9.84290  14.32500   0.25785   75.82642-134.69071   0.00100   371  372  373    110
   373  -9.88899  -9.88779  14.57500   0.25785   75.82642-134.69071   0.00100   372  373  374    110
   374  -9.93340  -9.93267  14.82500   0.25785   75.82642-134.69071   0.00100   373  374  375    110
   375  -9.97780  -9.97756  15.07500   0.25785   75.82642-134.69071   0.00100   374  375 -450    110
   376  -9.95000  -9.99973   0.39700   0.13724   43.22857   0.30940   0.00100  -451  376  377    111
   377  -9.85000  -9.99919   0.49100   0.13724   43.22857   0.30940   0.00100   376  377  378    111
   378  -9.75000  -9.99865   0.58500   0.13724   43.22857   0.30940   0.00100   377  378  379    111
   379  -9.65001  -9.99811   0.67900   0.13724   43.22857   0.30940   0.00100   378  379  380    111
   380  -9.55001  -9.99757   0.77300   0.13724   43.22857   0.30940   0.00100   379  380  381    111
   381  -9.45001  -9.99703   0.86700   0.13724   43.22857   0.30940   0.00100   380  381  382    111
   382  -9.35001  -9.99649   0.96100   0.13724   43.22857   0.30940   0.00100   381  382  383    111
   383  -9.25001  -9.99595   1.05500   0.13724   43.22857   0.30940   0.00100   382  383  384    111
   384  -9.15001  -9.99541   1.14900   0.13724   43.22857   0.30940   0.00100   383  384  385    111
   385  -9.05002  -9.99487   1.24300   0.13724   43.22857   0.30940   0.00100   384  385  386    111
   386  -8.95002  -9.99433   1.33700   0.13724   43.22857   0.30940   0.00100   385  386  387    111
   387  -8.85002  -9.99379   1.43100   0.13724   43.22857   0.30940   0.00100   386  387  388    111
   388  -8.75002  -9.99325   1.52500   0.13724   43.22857   0.30940   0.00100   387  388  389    111
   389  -8.65002  -9.99271   1.61900   0.13724   43.22857   0.30940   0.00100   388  389  390    111
   390  -8.55002  -9.99217   1.71300   0.13724   43.22857   0.30940   0.00100   389  390  391    111
   391  -8.45002  -9.99163   1.80700   0.13724   43.22857   0.30940   0.00100   390  391  392    111
   392  -8.35003  -9.99109   1.90100   0.13724   43.22857   0.30940   0.00100   391  392  393    111
   393  -8.25003  -9.99055   1.99500   0.13724   43.22857   0.30940   0.00100   392  393  394    111
   394  -8.15003  -9.99001   2.08900   0.13724   43.22857   0.30940   0.00100   393  394  395    111
   395  -8.05003  -9.98947   2.18300   0.13724   43.22857   0.30940   0.00100   394  395  396    111
   396  -7.95003  -9.98893   2.27700   0.13724   43.22857   0.30940   0.00100   395  396  397    111
   397  -7.85003  -9.98839   2.37100   0.13724   43.22857   0.30940   0.00100   396  397  398    111
   398  -7.75004  -9.98785   2.46500   0.13724   43.22857   0.30940   0.00100   397  398  399    111
   399  -7.65004  -9.98731   2.55900   0.13724   43.22857   0.30940   0.00100   398  399  400    111
   400  -7.55004  -9.98677   2.65300   0.13724   43.22857   0.30940   0.00100   399  400  401    111
   401  -7.52504  -9.98663   2.82500   0.25495   78.69008-179.69060   0.00100   400  401  402    112
   402  -7.57504  -9.98691   3.07500   0.25495   78.69008-179.69060   0.00100   401  402  403    112
   403  -7.62504  -9.98718   3.32500   0.25495   78.69008-179.69060   0.00100   402  403  404    112
   404  -7.67504  -9.98744   3.57500   0.25495   78.69008-179.69060   0.00100   403  404  405    112
   405  -7.72504  -9.98771   3.82500   0.25495   78.69008-179.69060   0.00100   404  405  406    112
   406  -7.77504  -9.98799   4.07500   0.25495   78.69008-179.69060   0.00100   405  406  407    112
   407  -7.82503  -9.98825   4.32500   0.25495   78.69008-179.69060   0.00100   406  407  408    112
   408  -7.87503  -9.98852   4.57500   0.25495   78.69008-179.69060   0.00100   407  408  409    112
   409  -7.92503  -9.98879   4.82500   0.25495   78.69008-179.69060   0.00100   408  409  410    112
   410  -7.97503  -9.98907   5.07500   0.25495   78.69008-179.69060   0.00100   409  410  411    112
   411  -8.02503  -9.98934   5.32500   0.25495   78.69008-179.69060   0.00100   410  411  412    112
   412  -8.07503  -9.98960   5.57500   0.25495   78.69008-179.69060   0.00100   411  412  413    112
   413  -8.12503  -9.98987   5.82500   0.25495   78.69008-179.69060   0.00100   412  413  414    112
   414  -8.17503  -9.99015   6.07500   0.25495   78.69008-179.69060   0.00100   413  414  415    112
   415  -8.22503  -9.99041   6.32500   0.25495   78.69008-179.69060   0.00100   414  415  416    112
   416  -8.27503  -9.99068   6.57500   0.25495   78.69008-179.69060   0.00100   415  416  417    112
   417  -8.32503  -9.99095   6.82500   0.25495   78.69008-179.69060   0.00100   416  417  418    112
   418  -8.37503  -9.99123   7.07500   0.25495   78.69008-179.69060   0.00100   417  418  419    112
   419  -8.42503  -9.99150   7.32500   0.25495   78.69008-179.69060   0.00100   418  419  420    112
   420  -8.47502  -9.99176   7.57500   0.25495   78.69008-179.69060   0.00100   419  420  421    112
   421  -8.52502  -9.99203   7.82500   0.25495   78.69008-179.69060   0.00100   420  421  422    112
   422  -8.57502  -9.99231   8.07500   0.25495   78.69008-179.69060   0.00100   421  422  423    112
   423  -8.62502  -9.99257   8.32500   0.25495   78.69008-179.69060   0.00100   422  423  424    112
   424  -8.67502  -9.99284   8.57500   0.25495   78.69008-179.69060   0.00100   423  424  425    112
   425  -8.72502  -9.99311   8.82500   0.25495   78.69008-179.69060   0.00100   424  425  426    112
   426  -8.77502  -9.99339   9.07500   0.25495   78.69008-179.69060   0.00100   425  426  427    112
   427  -8.82502  -9.99366   9.32500   0.25495   78.69008-179.69060   0.00100   426  427  428    112
   428  -8.87502  -9.99393   9.57500   0.25495   78.69008-179.69060   0.00100   427  428  429    112
   429  -8.92502  -9.99419   9.82500   0.25495   78.69008-179.69060   0.00100   428  429  430    112
   430  -8.97502  -9.99446  10.07500   0.25495   78.69008-179.69060   0.00100   429  430  431    112
   431  -9.02502  -9.99474  10.32500   0.25495   78.69008-179.69060   0.00100   430  431  432    112
   432  -9.07501  -9.99500  10.57500   0.25495   78.69008-179.69060   0.00100   431  432  433    112
   433  -9.12501  -9.99527  10.82500   0.25495   78.69008-179.69060   0.00100   432  433  434    112
   434  -9.17501  -9.99554  11.07500   0.25495   78.69008-179.69060   0.00100   433  434  435    112
   435  -9.22501  -9.99582  11.32500   0.25495   78.69008-179.69060   0.00100   434  435  436    112
   436  -9.27501  -9.99609  11.57500   0.25495   78.69008-179.69060   0.00100   435  436  437    112
   437  -9.32501  -9.99635  11.82500   0.25495   78.69008-179.69060   0.00100   436  437  438    112
   438  -9.37501  -9.99662  12.07500   0.25495   78.69008-179.69060   0.00100   437  438  439    112
   439  -9.42501  -9.99690  12.32500   0.25495   78.69008-179.69060   0.00100   438  439  440    112
   440  -9.47501  -9.99716  12.57500   0.25495   78.69008-179.69060   0.00100   439  440  441    112
   441  -9.52501  -9.99743  12.82500   0.25495   78.69008-179.69060   0.00100   440  441  442    112
   442  -9.57501  -9.99770  13.07500   0.25495   78.69008-179.69060   0.00100   441  442  443    112
   443  -9.62501  -9.99798  13.32500   0.25495   78.69008-179.69060   0.00100   442  443  444    112
   444  -9.67501  -9.99825  13.57500   0.25495   78.69008-179.69060   0.00100   443  444  445    112
   445  -9.72500  -9.99851  13.82500   0.25495   78.69008-179.69060   0.00100   444  445  446    112
   446  -9.77500  -9.99878  14.07500   0.25495   78.69008-179.69060   0.00100   445  446  447    112
   447  -9.82500  -9.99906  14.32500   0.25495   78.69008-179.69060   0.00100   446  447  448    112
   448  -9.87500  -9.99932  14.57500   0.25495   78.69008-179.69060   0.00100   447  448  449    112
   449  -9.92500  -9.99959  14.82500   0.25495   78.69008-179.69060   0.00100   448  449  450    112
   450  -9.97500  -9.99986  15.07500   0.25495   78.69008-179.69060   0.00100   449  450 -525    112
   451  -9.95517 -10.03511   0.39700   0.14768   39.53301 -38.06756   0.00100  -526  451  452    113
   452  -9.86550 -10.10534   0.49100   0.14768   39.53301 -38.06756   0.00100   451  452  453    113
   453  -9.77583 -10.17557   0.58500   0.14768   39.53301 -38.06756   0.00100   452  453  454    113
   454  -9.68616 -10.24580   0.67900   0.14768   39.53301 -38.06756   0.00100   453  454  455    113
   455  -9.59649 -10.31603   0.77300   0.14768   39.53301 -38.06756   0.00100   454  455  456    113
   456  -9.50682 -10.38625   0.86700   0.14768   39.53301 -38.06756   0.00100   455  456  457    113
   457  -9.41715 -10.45648   0.96100   0.14768   39.53301 -38.06756   0.00100   456  457  458    113
   458  -9.32748 -10.52671   1.05500   0.14768   39.53301 -38.06756   0.00100   457  458  459    113
   459  -9.23781 -10.59694   1.14900   0.14768   39.53301 -38.06756   0.00100   458  459  460    113
   460  -9.14814 -10.66717   1.24300   0.14768   39.53301 -38.06756   0.00100   459  460  461    113
   461  -9.05847 -10.73739   1.33700   0.14768   39.53301 -38.06756   0.00100   460  461  462    113
   462  -8.96880 -10.80762   1.43100   0.14768   39.53301 -38.06756   0.00100   461  462  463    113
   463  -8.87913 -10.87785   1.52500   0.14768   39.53301 -38.06756   0.00100   462  463  464    113
   464  -8.78946 -10.94808   1.61900   0.14768   39.53301 -38.06756   0.00100   463  464  465    113
   465  -8.69979 -11.01831   1.71300   0.14768   39.53301 -38.06756   0.00100   464  465  466    113
   466  -8.61012 -11.08853   1.80700   0.14768   39.53301 -38.06756   0.00100   465  466  467    113
   467  -8.52045 -11.15876   1.90100   0.14768   39.53301 -38.06756   0.00100   466  467  468    113
   468  -8.43078 -11.22899   1.99500   0.14768   39.53301 -38.06756   0.00100   467  468  469    113
   469  -8.34111 -11.29922   2.08900   0.14768   39.53301 -38.06756   0.00100   468  469  470    113
   470  -8.25144 -11.36945   2.18300   0.14768   39.53301 -38.06756   0.00100   469  470  471    113
   471  -8.16177 -11.43967   2.27700   0.14768   39.53301 -38.06756   0.00100   470  471  472    113
   472  -8.07210 -11.50990   2.37100   0.14768   39.53301 -38.06756   0.00100   471  472  473    113
   473  -7.98243 -11.58013   2.46500   0.14768   39.53301 -38.06756   0.00100   472  473  474    113
   474  -7.89276 -11.65036   2.55900   0.14768   39.53301 -38.06756   0.00100   473  474  475    113
   475  -7.80309 -11.72059   2.65300   0.14768   39.53301 -38.06756   0.00100   474  475  476    113
   476  -7.78068 -11.73814   2.82500   0.25640   77.16730 141.93244   0.00100   475  476  477    114
   477  -7.82551 -11.70303   3.07500   0.25640   77.16730 141.93244   0.00100   476  477  478    114
   478  -7.87035 -11.66791   3.32500   0.25640   77.16730 141.93244   0.00100   477  478  479    114
   479  -7.91518 -11.63280   3.57500   0.25640   77.16730 141.93244   0.00100   478  479  480    114
   480  -7.96002 -11.59769   3.82500   0.25640   77.16730 141.93244   0.00100   479  480  481    114
   481  -8.00485 -11.56257   4.07500   0.25640   77.16730 141.93244   0.00100   480  481  482    114
   482  -8.04969 -11.52746   4.32500   0.25640   77.16730 141.93244   0.00100   481  482  483    114
   483  -8.09452 -11.49234   4.57500   0.25640   77.16730 141.93244   0.00100   482  483  484    114
   484  -8.13936 -11.45723   4.82500   0.25640   77.16730 141.93244   0.00100   483  484  485    114
   485  -8.18419 -11.42212   5.07500   0.25640   77.16730 141.93244   0.00100   484  485  486    114
   486  -8.22903 -11.38700   5.32500   0.25640   77.16730 141.93244   0.00100   485  486  487    114
   487  -8.27386 -11.35189   5.57500   0.25640   77.16730 141.93244   0.00100   486  487  488    114
   488  -8.31870 -11.31678   5.82500   0.25640   77.16730 141.93244   0.00100   487  488  489    114
   489  -8.36353 -11.28166   6.07500   0.25640   77.16730 141.93244   0.00100   488  489  490    114
   490  -8.40836 -11.24655   6.32500   0.25640   77.16730 141.93244   0.00100   489  490  491    114
   491  -8.45320 -11.21143   6.57500   0.25640   77.16730 141.93244   0.00100   490  491  492    114
   492  -8.49803 -11.17632   6.82500   0.25640   77.16730 141.93244   0.00100   491  492  493    114
   493  -8.54287 -11.14120   7.07500   0.25640   77.16730 141.93244   0.00100   492  493  494    114
   494  -8.58770 -11.10609   7.32500   0.25640   77.16730 141.93244   0.00100   493  494  495    114
   495  -8.63254 -11.07098   7.57500   0.25640   77.16730 141.93244   0.00100   494  495  496    114
   496  -8.67737 -11.03586   7.82500   0.25640   77.16730 141.93244   0.00100   495  496  497    114
   497  -8.72221 -11.00075   8.07500   0.25640   77.16730 141.93244   0.00100   496  497  498    114
   498  -8.76704 -10.96563   8.32500   0.25640   77.16730 141.93244   0.00100   497  498  499    114
   499  -8.81188 -10.93052   8.57500   0.25640   77.16730 141.93244   0.00100   498  499  500    114
   500  -8.85671 -10.89541   8.82500   0.25640   77.16730 141.93244   0.00100   499  500  501    114
   501  -8.90155 -10.86029   9.07500   0.25640   77.16730 141.93244   0.00100   500  501  502    114
   502  -8.94638 -10.82518   9.32500   0.25640   77.16730 141.93244   0.00100   501  502  503    114
   503  -8.99122 -10.79007   9.57500   0.25640   77.16730 141.93244   0.00100   502  503  504    114
   504  -9.03605 -10.75495   9.82500   0.25640   77.16730 141.93244   0.00100   503  504  505    114
   505  -9.08089 -10.71984  10.07500   0.25640   77.16730 141.93244   0.00100   504  505  506    114
   506  -9.12572 -10.68472  10.32500   0.25640   77.16730 141.93244   0.00100   505  506  507    114
   507  -9.17056 -10.64961  10.57500   0.25640   77.16730 141.93244   0.00100   506  507  508    114
   508  -9.21539 -10.61450  10.82500   0.25640   77.16730 141.93244   0.00100   507  508  509    114
   509  -9.26023 -10.57938  11.07500   0.25640   77.16730 141.93244   0.00100   508  509  510    114
   510  -9.30506 -10.54427  11.32500   0.25640   77.16730 141.93244   0.00100   509  510  511    114
   511  -9.34990 -10.50915  11.57500   0.25640   77.16730 141.93244   0.00100   510  511  512    114
   512  -9.39473 -10.47404  11.82500   0.25640   77.16730 141.93244   0.00100   511  512  513    114
   513  -9.43957 -10.43892  12.07500   0.25640   77.16730 141.93244   0.00100   512  513  514    114
   514  -9.48440 -10.40381  12.32500   0.25640   77.16730 141.93244   0.00100   513  514  515    114
   515  -9.52923 -10.36870  12.57500   0.25640   77.16730 141.93244   0.00100   514  515  516    114
   516  -9.57407 -10.33358  12.82500   0.25640   77.16730 141.93244   0.00100   515  516  517    114
   517  -9.61890 -10.29847  13.07500   0.25640   77.16730 141.93244   0.00100   516  517  518    114
   518  -9.66374 -10.26336  13.32500   0.25640   77.16730 141.93244   0.00100   517  518  519    114
   519  -9.70857 -10.22824  13.57500   0.25640   77.16730 141.93244   0.00100   518  519  520    114
   520  -9.75341 -10.19313  13.82500   0.25640   77.16730 141.93244   0.00100   519  520  521    114
   521  -9.79824 -10.15801  14.07500   0.25640   77.16730 141.93244   0.00100   520  521  522    114
   522  -9.84308 -10.12290  14.32500   0.25640   77.16730 141.93244   0.00100   521  522  523    114
   523  -9.88791 -10.08779  14.57500   0.25640   77.16730 141.93244   0.00100   522  523  524    114
   524  -9.93275 -10.05267  14.82500   0.25640   77.16730 141.93244   0.00100   523  524  525    114
   525  -9.97758 -10.01756  15.07500   0.25640   77.16730 141.93244   0.00100   524  525 -600    114
   526  -9.99973 -10.05000   0.39700   0.13725   43.22811 -89.69061   0.00100   603  526  527    115
   527  -9.99919 -10.15000   0.49100   0.13725   43.22811 -89.69061   0.00100   526  527  528    115
   528  -9.99865 -10.25000   0.58500   0.13725   43.22811 -89.69061   0.00100   527  528  529    115
   529  -9.99811 -10.35000   0.67900   0.13725   43.22811 -89.69061   0.00100   528  529  530    115
   530  -9.99757 -10.45000   0.77300   0.13725   43.22811 -89.69061   0.00100   529  530  531    115
   531  -9.99703 -10.55000   0.86700   0.13725   43.22811 -89.69061   0.00100   530  531  532    115
   532  -9.99649 -10.65000   0.96100   0.13725   43.22811 -89.69061   0.00100   531  532  533    115
   533  -9.99595 -10.75000   1.05500   0.13725   43.22811 -89.69061   0.00100   532  533  534    115
   534  -9.99541 -10.85000   1.14900   0.13725   43.22811 -89.69061   0.00100   533  534  535    115
   535  -9.99487 -10.95000   1.24300   0.13725   43.22811 -89.69061   0.00100   534  535  536    115
   536  -9.99433 -11.05000   1.33700   0.13725   43.22811 -89.69061   0.00100   535  536  537    115
   537  -9.99379 -11.15000   1.43100   0.13725   43.22811 -89.69061   0.00100   536  537  538    115
   538  -9.99325 -11.25000   1.52500   0.13725   43.22811 -89.69061   0.00100   537  538  539    115
   539  -9.99271 -11.35000   1.61900   0.13725   43.22811 -89.69061   0.00100   538  539  540    115
   540  -9.99217 -11.45000   1.71300   0.13725   43.22811 -89.69061   0.00100   539  540  541    115
   541  -9.99163 -11.55000   1.80700   0.13725   43.22811 -89.69061   0.00100   540  541  542    115
   542  -9.99109 -11.65000   1.90100   0.13725   43.22811 -89.69061   0.00100   541  542  543    115
   543  -9.99055 -11.75000   1.99500   0.13725   43.22811 -89.69061   0.00100   542  543  544    115
   544  -9.99001 -11.85000   2.08900   0.13725   43.22811 -89.69061   0.00100   543  544  545    115
   545  -9.98947 -11.95000   2.18300   0.13725   43.22811 -89.69061   0.00100   544  545  546    115
   546  -9.98893 -12.05000   2.27700   0.13725   43.22811 -89.69061   0.00100   545  546  547    115
   547  -9.98839 -12.15000   2.37100   0.13725   43.22811 -89.69061   0.00100   546  547  548    115
   548  -9.98785 -12.25000   2.46500   0.13725   43.22811 -89.69061   0.00100   547  548  549    115
   549  -9.98731 -12.35000   2.55900   0.13725   43.22811 -89.69061   0.00100   548  549  550    115
   550  -9.98677 -12.45000   2.65300   0.13725   43.22811 -89.69061   0.00100   549  550  551    115
   551  -9.98663 -12.47500   2.82500   0.25495   78.68991  90.30939   0.00100   550  551  552    116
   552  -9.98691 -12.42500   3.07500   0.25495   78.68991  90.30939   0.00100   551  552  553    116
   553  -9.98718 -12.37500   3.32500   0.25495   78.68991  90.30939   0.00100   552  553  554    116
   554  -9.98744 -12.32500   3.57500   0.25495   78.68991  90.30939   0.00100   553  554  555    116
   555  -9.98771 -12.27500   3.82500   0.25495   78.68991  90.30939   0.00100   554  555  556    116
   556  -9.98799 -12.22500   4.07500   0.25495   78.68991  90.30939   0.00100   555  556  557    116
   557  -9.98825 -12.17500   4.32500   0.25495   78.68991  90.30939   0.00100   556  557  558    116
   558  -9.98852 -12.12500   4.57500   0.25495   78.68991  90.30939   0.00100   557  558  559    116
   559  -9.98879 -12.07500   4.82500   0.25495   78.68991  90.30939   0.00100   558  559  560    116
   560  -9.98907 -12.02500   5.07500   0.25495   78.68991  90.30939   0.00100   559  560  561    116
   561  -9.98934 -11.97500   5.32500   0.25495   78.68991  90.30939   0.00100   560  561  562    116
   562  -9.98960 -11.92500   5.57500   0.25495   78.68991  90.30939   0.00100   561  562  563    116
   563  -9.98987 -11.87500   5.82500   0.25495   78.68991  90.30939   0.00100   562  563  564    116
   564  -9.99015 -11.82500   6.07500   0.25495   78.68991  90.30939   0.00100   563  564  565    116
   565  -9.99041 -11.77500   6.32500   0.25495   78.68991  90.30939   0.00100   564  565  566    116
   566  -9.99068 -11.72500   6.57500   0.25495   78.68991  90.30939   0.00100   565  566  567    116
   567  -9.99095 -11.67500   6.82500   0.25495   78.68991  90.30939   0.00100   566  567  568    116
   568  -9.99123 -11.62500   7.07500   0.25495   78.68991  90.30939   0.00100   567  568  569    116
   569  -9.99150 -11.57500   7.32500   0.25495   78.68991  90.30939   0.00100   568  569  570    116
   570  -9.99176 -11.52500   7.57500   0.25495   78.68991  90.30939   0.00100   569  570  571    116
   571  -9.99203 -11.47500   7.82500   0.25495   78.68991  90.30939   0.00100   570  571  572    116
   572  -9.99231 -11.42500   8.07500   0.25495   78.68991  90.30939   0.00100   571  572  573    116
   573  -9.99257 -11.37500   8.32500   0.25495   78.68991  90.30939   0.00100   572  573  574    116
   574  -9.99284 -11.32500   8.57500   0.25495   78.68991  90.30939   0.00100   573  574  575    116
   575  -9.99311 -11.27500   8.82500   0.25495   78.68991  90.30939   0.00100   574  575  576    116
   576  -9.99339 -11.22500   9.07500   0.25495   78.68991  90.30939   0.00100   575  576  577    116
   577  -9.99366 -11.17500   9.32500   0.25495   78.68991  90.30939   0.00100   576  577  578    116
   578  -9.99393 -11.12500   9.57500   0.25495   78.68991  90.30939   0.00100   577  578  579    116
   579  -9.99419 -11.07500   9.82500   0.25495   78.68991  90.30939   0.00100   578  579  580    116
   580  -9.99446 -11.02500  10.07500   0.25495   78.68991  90.30939   0.00100   579  580  581    116
   581  -9.99474 -10.97500  10.32500   0.25495   78.68991  90.30939   0.00100   580  581  582    116
   582  -9.99500 -10.92500  10.57500   0.25495   78.68991  90.30939   0.00100   581  582  583    116
   583  -9.99527 -10.87500  10.82500   0.25495   78.68991  90.30939   0.00100   582  583  584    116
   584  -9.99554 -10.82500  11.07500   0.25495   78.68991  90.30939   0.00100   583  584  585    116
   585  -9.99582 -10.77500  11.32500   0.25495   78.68991  90.30939   0.00100   584  585  586    116
   586  -9.99609 -10.72500  11.57500   0.25495   78.68991  90.30939   0.00100   585  586  587    116
   587  -9.99635 -10.67500  11.82500   0.25495   78.68991  90.30939   0.00100   586  587  588    116
   588  -9.99662 -10.62500  12.07500   0.25495   78.68991  90.30939   0.00100   587  588  589    116
   589  -9.99690 -10.57500  12.32500   0.25495   78.68991  90.30939   0.00100   588  589  590    116
   590  -9.99716 -10.52500  12.57500   0.25495   78.68991  90.30939   0.00100   589  590  591    116
   591  -9.99743 -10.47500  12.82500   0.25495   78.68991  90.30939   0.00100   590  591  592    116
   592  -9.99770 -10.42500  13.07500   0.25495   78.68991  90.30939   0.00100   591  592  593    116
   593  -9.99798 -10.37500  13.32500   0.25495   78.68991  90.30939   0.00100   592  593  594    116
   594  -9.99825 -10.32500  13.57500   0.25495   78.68991  90.30939   0.00100   593  594  595    116
   595  -9.99851 -10.27500  13.82500   0.25495   78.68991  90.30939   0.00100   594  595  596    116
   596  -9.99878 -10.22500  14.07500   0.25495   78.68991  90.30939   0.00100   595  596  597    116
   597  -9.99906 -10.17500  14.32500   0.25495   78.68991  90.30939   0.00100   596  597  598    116
   598  -9.99932 -10.12500  14.57500   0.25495   78.68991  90.30939   0.00100   597  598  599    116
   599  -9.99959 -10.07500  14.82500   0.25495   78.68991  90.30939   0.00100   598  599  600    116
   600  -9.99986 -10.02500  15.07500   0.25495   78.68991  90.30939   0.00100   599  600  -75    116
   601 -10.00000 -10.00000  -0.23333   0.23333   90.00000   0.00000   0.00100  -604  601  602    117
   602 -10.00000 -10.00000   0.00000   0.23333   90.00000   0.00000   0.00100   601  602  603    117
   603 -10.00000 -10.00000   0.23333   0.23333   90.00000   0.00000   0.00100   602  603    1    117
   604 -10.03516 -10.03555  -0.39700   0.13724  -43.22839-134.69047   0.00100  -679  604  605    118
   605 -10.10549 -10.10664  -0.49100   0.13724  -43.22839-134.69047   0.00100   604  605  606    118
   606 -10.17582 -10.17773  -0.58500   0.13724  -43.22839-134.69047   0.00100   605  606  607    118
   607 -10.24615 -10.24882  -0.67900   0.13724  -43.22839-134.69047   0.00100   606  607  608    118
   608 -10.31648 -10.31991  -0.77300   0.13724  -43.22839-134.69047   0.00100   607  608  609    118
   609 -10.38680 -10.39101  -0.86700   0.13724  -43.22839-134.69047   0.00100   608  609  610    118
   610 -10.45713 -10.46210  -0.96100   0.13724  -43.22839-134.69047   0.00100   609  610  611    118
   611 -10.52746 -10.53319  -1.05500   0.13724  -43.22839-134.69047   0.00100   610  611  612    118
   612 -10.59779 -10.60428  -1.14900   0.13724  -43.22839-134.69047   0.00100   611  612  613    118
   613 -10.66812 -10.67537  -1.24300   0.13724  -43.22839-134.69047   0.00100   612  613  614    118
   614 -10.73844 -10.74647  -1.33700   0.13724  -43.22839-134.69047   0.00100   613  614  615    118
   615 -10.80877 -10.81756  -1.43100   0.13724  -43.22839-134.69047   0.00100   614  615  616    118
   616 -10.87910 -10.88865  -1.52500   0.13724  -43.22839-134.69047   0.00100   615  616  617    118
   617 -10.94943 -10.95974  -1.61900   0.13724  -43.22839-134.69047   0.00100   616  617  618    118
[...]
   40.00   315.00      -4.46  -41.38   -4.46    0.00951    -0.61  LEFT      3.26048E-01    98.40    4.64621E-03  -123.48
   45.00   315.00      -3.83  -42.44   -3.83    0.00708    -0.54  LEFT      3.50593E-01    93.22    4.11370E-03  -123.92
   50.00   315.00      -3.26  -43.65   -3.26    0.00510    -0.46  LEFT      3.74372E-01    87.84    3.57826E-03  -124.42
   55.00   315.00      -2.72  -45.04   -2.72    0.00353    -0.39  LEFT      3.98234E-01    82.50    3.05185E-03  -124.96
   60.00   315.00      -2.21  -46.62   -2.21    0.00235    -0.32  LEFT      4.22378E-01    77.49    2.54386E-03  -125.53
   65.00   315.00      -1.73  -48.45   -1.73    0.00151    -0.25  LEFT      4.46282E-01    73.01    2.06050E-03  -126.10
   70.00   315.00      -1.31  -50.62   -1.31    0.00094    -0.19  LEFT      4.68829E-01    69.23    1.60457E-03  -126.64
   75.00   315.00      -0.95  -53.32   -0.95    0.00056    -0.13  LEFT      4.88558E-01    66.25    1.17545E-03  -127.12
   80.00   315.00      -0.68  -57.00   -0.68    0.00031    -0.09  LEFT      5.03967E-01    64.11    7.69421E-04  -127.50
   85.00   315.00      -0.51  -63.13   -0.51    0.00014    -0.04  LEFT      5.13780E-01    62.82    3.80266E-04  -127.74
   90.00   315.00      -0.45 -999.99   -0.45    0.00000     0.00  LINEAR    5.17150E-01    62.39    5.50522E-13  -173.80
    0.00   320.00     -58.86  -37.63  -37.60    0.00076    85.04  LEFT      6.21166E-04  -122.40    7.15958E-03  -121.90
    5.00   320.00     -20.21  -37.70  -20.13    0.11569    -3.80  LEFT      5.32096E-02   119.09    7.09811E-03  -121.48
   10.00   320.00     -14.20  -37.89  -14.18    0.05611    -1.92  LEFT      1.06222E-01   118.10    6.94582E-03  -121.11
   15.00   320.00     -10.80  -38.20  -10.79    0.03596    -1.31  LEFT      1.57231E-01   116.73    6.70759E-03  -120.77
   20.00   320.00      -8.49  -38.62   -8.49    0.02562    -1.02  LEFT      2.05027E-01   114.84    6.39095E-03  -120.47
   25.00   320.00      -6.81  -39.16   -6.81    0.01917    -0.84  LEFT      2.48823E-01   112.41    6.00586E-03  -120.20
   30.00   320.00      -5.53  -39.82   -5.53    0.01465    -0.72  LEFT      2.88327E-01   109.44    5.56427E-03  -119.97
   35.00   320.00      -4.52  -40.61   -4.52    0.01124    -0.63  LEFT      3.23735E-01   105.98    5.07967E-03  -119.77
   40.00   320.00      -3.71  -41.54   -3.71    0.00854    -0.55  LEFT      3.55652E-01   102.09    4.56632E-03  -119.61
   45.00   320.00      -3.02  -42.60   -3.02    0.00637    -0.48  LEFT      3.84914E-01    97.90    4.03843E-03  -119.48
   50.00   320.00      -2.42  -43.82   -2.42    0.00463    -0.41  LEFT      4.12362E-01    93.56    3.50929E-03  -119.40
   55.00   320.00      -1.89  -45.21   -1.89    0.00326    -0.34  LEFT      4.38589E-01    89.26    2.99039E-03  -119.35
   60.00   320.00      -1.40  -46.80   -1.40    0.00223    -0.28  LEFT      4.63765E-01    85.19    2.49068E-03  -119.33
   65.00   320.00      -0.97  -48.64   -0.97    0.00147    -0.22  LEFT      4.87561E-01    81.53    2.01603E-03  -119.34
   70.00   320.00      -0.59  -50.81   -0.59    0.00094    -0.17  LEFT      5.09211E-01    78.40    1.56898E-03  -119.37
   75.00   320.00      -0.28  -53.52   -0.28    0.00057    -0.12  LEFT      5.27678E-01    75.90    1.14878E-03  -119.41
   80.00   320.00      -0.05  -57.21   -0.05    0.00032    -0.08  LEFT      5.41860E-01    74.08    7.51663E-04  -119.45
   85.00   320.00       0.09  -63.33    0.09    0.00015    -0.04  LEFT      5.50801E-01    72.99    3.71394E-04  -119.48
   90.00   320.00       0.14 -999.99    0.14    0.00000     0.00  LINEAR    5.53857E-01    72.62    5.50747E-13  -167.17
    0.00   325.00     -52.84  -37.73  -37.60    0.00076    80.04  LEFT      1.24279E-03  -122.15    7.07820E-03  -121.89
    5.00   325.00     -20.16  -37.82  -20.09    0.11393    -3.69  LEFT      5.34869E-02   119.84    7.00349E-03  -121.04
   10.00   325.00     -14.04  -38.02  -14.02    0.05412    -1.87  LEFT      1.08231E-01   118.77    6.84123E-03  -120.22
   15.00   325.00     -10.53  -38.34  -10.52    0.03412    -1.27  LEFT      1.62100E-01   117.58    6.59668E-03  -119.42
   20.00   325.00      -8.13  -38.77   -8.12    0.02394    -0.97  LEFT      2.13794E-01   116.00    6.27754E-03  -118.64
   25.00   325.00      -6.35  -39.32   -6.35    0.01766    -0.80  LEFT      2.62365E-01   113.99    5.89368E-03  -117.87
   30.00   325.00      -4.98  -39.99   -4.98    0.01333    -0.67  LEFT      3.07276E-01   111.56    5.45681E-03  -117.11
   35.00   325.00      -3.89  -40.78   -3.88    0.01013    -0.58  LEFT      3.48396E-01   108.76    4.97990E-03  -116.36
   40.00   325.00      -3.00  -41.71   -3.00    0.00765    -0.50  LEFT      3.85938E-01   105.65    4.47658E-03  -115.63
   45.00   325.00      -2.26  -42.77   -2.25    0.00570    -0.43  LEFT      4.20328E-01   102.33    3.96029E-03  -114.90
   50.00   325.00      -1.62  -43.99   -1.62    0.00416    -0.37  LEFT      4.52038E-01    98.91    3.44352E-03  -114.20
   55.00   325.00      -1.08  -45.37   -1.08    0.00296    -0.31  LEFT      4.81420E-01    95.53    2.93698E-03  -113.53
   60.00   325.00      -0.60  -46.95   -0.60    0.00205    -0.25  LEFT      5.08569E-01    92.32    2.44893E-03  -112.90
   65.00   325.00      -0.19  -48.77   -0.19    0.00138    -0.20  LEFT      5.33260E-01    89.41    1.98473E-03  -112.32
   70.00   325.00       0.16  -50.94    0.16    0.00089    -0.15  LEFT      5.54980E-01    86.91    1.54663E-03  -111.81
   75.00   325.00       0.44  -53.64    0.44    0.00055    -0.11  LEFT      5.73017E-01    84.89    1.13378E-03  -111.38
   80.00   325.00       0.64  -57.31    0.64    0.00032    -0.07  LEFT      5.86604E-01    83.41    7.42577E-04  -111.07
   85.00   325.00       0.76  -63.43    0.76    0.00014    -0.03  LEFT      5.95066E-01    82.52    3.67141E-04  -110.87
   90.00   325.00       0.81 -999.99    0.81    0.00000     0.00  LINEAR    5.97941E-01    82.22    5.47434E-13  -160.72
    0.00   330.00     -49.36  -37.90  -37.60    0.00076    75.04  LEFT      1.85496E-03  -122.06    6.94295E-03  -121.89
    5.00   330.00     -20.12  -38.00  -20.05    0.11131    -3.56  LEFT      5.37639E-02   120.57    6.85673E-03  -120.61
   10.00   330.00     -13.88  -38.22  -13.87    0.05183    -1.81  LEFT      1.10224E-01   119.44    6.68780E-03  -119.34
   15.00   330.00     -10.28  -38.55  -10.27    0.03217    -1.22  LEFT      1.66949E-01   118.44    6.44162E-03  -118.07
   20.00   330.00      -7.78  -38.98   -7.77    0.02225    -0.93  LEFT      2.22554E-01   117.17    6.12580E-03  -116.80
   25.00   330.00      -5.91  -39.53   -5.91    0.01621    -0.75  LEFT      2.75938E-01   115.57    5.74986E-03  -115.52
   30.00   330.00      -4.45  -40.20   -4.45    0.01210    -0.63  LEFT      3.26331E-01   113.66    5.32490E-03  -114.23
   35.00   330.00      -3.29  -40.99   -3.29    0.00911    -0.53  LEFT      3.73298E-01   111.47    4.86307E-03  -112.92
   40.00   330.00      -2.33  -41.90   -2.33    0.00684    -0.46  LEFT      4.16693E-01   109.06    4.37697E-03  -111.59
   45.00   330.00      -1.54  -42.95   -1.54    0.00509    -0.39  LEFT      4.56570E-01   106.51    3.87895E-03  -110.26
   50.00   330.00      -0.87  -44.15   -0.87    0.00372    -0.33  LEFT      4.93074E-01   103.89    3.38036E-03  -108.94
   55.00   330.00      -0.30  -45.51   -0.30    0.00266    -0.28  LEFT      5.26317E-01   101.30    2.89085E-03  -107.64
   60.00   330.00       0.18  -47.06    0.18    0.00185    -0.23  LEFT      5.56291E-01    98.85    2.41775E-03  -106.39
   65.00   330.00       0.58  -48.86    0.58    0.00125    -0.18  LEFT      5.82809E-01    96.62    1.96575E-03  -105.22
   70.00   330.00       0.92  -51.00    0.92    0.00082    -0.14  LEFT      6.05518E-01    94.69    1.53671E-03  -104.18
   75.00   330.00       1.18  -53.67    1.18    0.00051    -0.10  LEFT      6.23944E-01    93.13    1.12978E-03  -103.31
   80.00   330.00       1.36  -57.32    1.36    0.00029    -0.06  LEFT      6.37575E-01    91.98    7.41681E-04  -102.65
   85.00   330.00       1.48  -63.43    1.48    0.00013    -0.03  LEFT      6.45961E-01    91.28    3.67255E-04  -102.24
   90.00   330.00       1.52 -999.99    1.52    0.00000     0.00  LINEAR    6.48793E-01    91.04    5.40486E-13  -154.52
    0.00   335.00     -46.93  -38.13  -37.60    0.00076    70.04  LEFT      2.45302E-03  -122.02    6.75486E-03  -121.89
    5.00   335.00     -20.07  -38.26  -20.01    0.10788    -3.41  LEFT      5.40383E-02   121.28    6.65917E-03  -120.18
   10.00   335.00     -13.73  -38.49  -13.71    0.04929    -1.73  LEFT      1.12185E-01   120.09    6.48694E-03  -118.47
   15.00   335.00     -10.03  -38.82  -10.02    0.03014    -1.17  LEFT      1.71738E-01   119.28    6.24368E-03  -116.74
   20.00   335.00      -7.45  -39.26   -7.44    0.02058    -0.88  LEFT      2.31234E-01   118.32    5.93668E-03  -114.98
   25.00   335.00      -5.50  -39.80   -5.49    0.01482    -0.70  LEFT      2.89430E-01   117.13    5.57488E-03  -113.19
   30.00   335.00      -3.96  -40.46   -3.96    0.01095    -0.58  LEFT      3.45337E-01   115.70    5.16847E-03  -111.35
   35.00   335.00      -2.72  -41.23   -2.72    0.00818    -0.49  LEFT      3.98240E-01   114.08    4.72848E-03  -109.48
   40.00   335.00      -1.71  -42.13   -1.71    0.00611    -0.42  LEFT      4.47663E-01   112.29    4.26620E-03  -107.57
   45.00   335.00      -0.86  -43.15   -0.86    0.00452    -0.36  LEFT      4.93327E-01   110.41    3.79260E-03  -105.64
   50.00   335.00      -0.16  -44.31   -0.16    0.00330    -0.30  LEFT      5.35069E-01   108.49    3.31759E-03  -103.70
   55.00   335.00       0.43  -45.63    0.43    0.00237    -0.25  LEFT      5.72773E-01   106.59    2.84949E-03  -101.80
   60.00   335.00       0.93  -47.14    0.93    0.00165    -0.21  LEFT      6.06300E-01   104.79    2.39450E-03   -99.97
   65.00   335.00       1.33  -48.90    1.33    0.00112    -0.16  LEFT      6.35453E-01   103.16    1.95648E-03   -98.26
   70.00   335.00       1.66  -50.99    1.66    0.00074    -0.13  LEFT      6.59961E-01   101.73    1.53683E-03   -96.74
   75.00   335.00       1.92  -53.63    1.92    0.00046    -0.09  LEFT      6.79507E-01   100.58    1.13475E-03   -95.46
   80.00   335.00       2.10  -57.25    2.10    0.00026    -0.06  LEFT      6.93763E-01    99.73    7.47513E-04   -94.50
   85.00   335.00       2.21  -63.34    2.21    0.00012    -0.03  LEFT      7.02446E-01    99.21    3.70967E-04   -93.90
   90.00   335.00       2.24 -999.99    2.24    0.00000     0.00  LINEAR    7.05363E-01    99.03    5.29892E-13  -148.63
    0.00   340.00     -45.09  -38.45  -37.60    0.00076    65.04  LEFT      3.03241E-03  -121.99    6.51536E-03  -121.88
    5.00   340.00     -20.03  -38.59  -19.97    0.10367    -3.24  LEFT      5.43074E-02   121.97    6.41247E-03  -119.76
   10.00   340.00     -13.58  -38.82  -13.57    0.04651    -1.65  LEFT      1.14098E-01   120.72    6.24028E-03  -117.62
   15.00   340.00      -9.80  -39.16   -9.79    0.02805    -1.10  LEFT      1.76425E-01   120.11    6.00416E-03  -115.43
   20.00   340.00      -7.13  -39.59   -7.13    0.01893    -0.83  LEFT      2.39759E-01   119.46    5.71096E-03  -113.19
   25.00   340.00      -5.11  -40.13   -5.10    0.01349    -0.66  LEFT      3.02723E-01   118.64    5.36879E-03  -110.89
   30.00   340.00      -3.50  -40.77   -3.50    0.00988    -0.54  LEFT      3.64130E-01   117.67    4.98675E-03  -108.52
   35.00   340.00      -2.20  -41.52   -2.20    0.00733    -0.46  LEFT      4.23004E-01   116.55    4.57452E-03  -106.10
   40.00   340.00      -1.13  -42.38   -1.13    0.00544    -0.39  LEFT      4.78572E-01   115.33    4.14187E-03  -103.62
   45.00   340.00      -0.24  -43.37   -0.24    0.00402    -0.33  LEFT      5.30244E-01   114.03    3.69810E-03  -101.12
   50.00   340.00       0.51  -44.49    0.51    0.00293    -0.28  LEFT      5.77576E-01   112.71    3.25149E-03   -98.61
   55.00   340.00       1.12  -45.76    1.12    0.00210    -0.23  LEFT      6.20223E-01   111.41    2.80879E-03   -96.15
   60.00   340.00       1.64  -47.21    1.64    0.00147    -0.19  LEFT      6.57900E-01   110.17    2.37489E-03   -93.79
   65.00   340.00       2.05  -48.91    2.05    0.00100    -0.15  LEFT      6.90352E-01   109.05    1.95267E-03   -91.61
   70.00   340.00       2.39  -50.96    2.39    0.00066    -0.12  LEFT      7.17336E-01   108.07    1.54310E-03   -89.67
   75.00   340.00       2.64  -53.55    2.64    0.00041    -0.09  LEFT      7.38621E-01   107.27    1.14544E-03   -88.06
   80.00   340.00       2.82  -57.14    2.82    0.00024    -0.06  LEFT      7.53998E-01   106.68    7.57720E-04   -86.85
   85.00   340.00       2.93  -63.20    2.93    0.00011    -0.03  LEFT      7.63298E-01   106.32    3.77040E-04   -86.10
   90.00   340.00       2.96 -999.99    2.96    0.00000     0.00  LINEAR    7.66411E-01   106.19    5.15535E-13  -143.13
    0.00   345.00     -43.63  -38.84  -37.60    0.00076    60.04  LEFT      3.58872E-03  -121.98    6.22628E-03  -121.88
    5.00   345.00     -19.99  -38.99  -19.93    0.09870    -3.05  LEFT      5.45686E-02   122.62    6.11862E-03  -119.36
   10.00   345.00     -13.44  -39.24  -13.43    0.04354    -1.56  LEFT      1.15947E-01   121.32    5.94964E-03  -116.79
   15.00   345.00      -9.57  -39.57   -9.57    0.02593    -1.04  LEFT      1.80970E-01   120.91    5.72444E-03  -114.16
   20.00   345.00      -6.84  -40.00   -6.83    0.01731    -0.78  LEFT      2.48051E-01   120.55    5.44927E-03  -111.45
   25.00   345.00      -4.74  -40.52   -4.74    0.01222    -0.61  LEFT      3.15696E-01   120.10    5.13132E-03  -108.65
   30.00   345.00      -3.07  -41.14   -3.07    0.00888    -0.50  LEFT      3.82536E-01   119.54    4.77846E-03  -105.77
   35.00   345.00      -1.71  -41.86   -1.71    0.00654    -0.42  LEFT      4.47358E-01   118.89    4.39887E-03  -102.82
   40.00   345.00      -0.59  -42.68   -0.59    0.00483    -0.35  LEFT      5.09117E-01   118.16    4.00062E-03   -99.81
   45.00   345.00       0.34  -43.62    0.34    0.00356    -0.30  LEFT      5.66941E-01   117.38    3.59121E-03   -96.77
   50.00   345.00       1.12  -44.69    1.12    0.00259    -0.25  LEFT      6.20115E-01   116.57    3.17707E-03   -93.74
   55.00   345.00       1.77  -45.90    1.77    0.00185    -0.21  LEFT      6.68072E-01   115.78    2.76324E-03   -90.79
   60.00   345.00       2.30  -47.29    2.30    0.00129    -0.17  LEFT      7.10364E-01   115.02    2.35317E-03   -87.99
   65.00   345.00       2.74  -48.93    2.74    0.00088    -0.14  LEFT      7.46645E-01   114.33    1.94871E-03   -85.41
   70.00   345.00       3.08  -50.92    3.08    0.00058    -0.11  LEFT      7.76651E-01   113.73    1.55035E-03   -83.14
   75.00   345.00       3.34  -53.46    3.34    0.00036    -0.08  LEFT      8.00180E-01   113.23    1.15757E-03   -81.28
   80.00   345.00       3.52  -57.01    3.52    0.00021    -0.05  LEFT      8.17087E-01   112.87    7.69214E-04   -79.88
   85.00   345.00       3.63  -63.04    3.63    0.00009    -0.03  LEFT      8.27270E-01   112.64    3.83859E-04   -79.02
   90.00   345.00       3.66 -999.99    3.66    0.00000     0.00  LINEAR    8.30671E-01   112.57    4.97347E-13  -138.08
    0.00   350.00     -42.43  -39.32  -37.60    0.00076    55.04  LEFT      4.11772E-03  -121.96    5.88981E-03  -121.87
    5.00   350.00     -19.95  -39.49  -19.90    0.09304    -2.84  LEFT      5.48196E-02   123.23    5.77991E-03  -118.97
   10.00   350.00     -13.31  -39.74  -13.30    0.04039    -1.46  LEFT      1.17716E-01   121.90    5.61705E-03  -116.00
   15.00   350.00      -9.37  -40.07   -9.36    0.02377    -0.97  LEFT      1.85332E-01   121.68    5.40597E-03  -112.93
   20.00   350.00      -6.56  -40.49   -6.56    0.01572    -0.72  LEFT      2.56035E-01   121.60    5.15225E-03  -109.77
   25.00   350.00      -4.40  -40.99   -4.40    0.01101    -0.57  LEFT      3.28228E-01   121.49    4.86207E-03  -106.50
   30.00   350.00      -2.68  -41.58   -2.68    0.00794    -0.46  LEFT      4.00378E-01   121.31    4.54201E-03  -103.14
   35.00   350.00      -1.27  -42.26   -1.27    0.00582    -0.39  LEFT      4.71061E-01   121.07    4.19870E-03   -99.69
   40.00   350.00      -0.10  -43.04   -0.10    0.00428    -0.33  LEFT      5.38985E-01   120.77    3.83845E-03   -96.19
   45.00   350.00       0.88  -43.93    0.88    0.00314    -0.28  LEFT      6.03014E-01   120.44    3.46682E-03   -92.67
   50.00   350.00       1.69  -44.93    1.69    0.00228    -0.23  LEFT      6.62185E-01   120.08    3.08835E-03   -89.19
   55.00   350.00       2.37  -46.08    2.37    0.00163    -0.20  LEFT      7.15707E-01   119.72    2.70627E-03   -85.82
   60.00   350.00       2.92  -47.41    2.92    0.00114    -0.16  LEFT      7.62958E-01   119.37    2.32252E-03   -82.65
   65.00   350.00       3.37  -48.98    3.37    0.00078    -0.13  LEFT      8.03475E-01   119.04    1.93792E-03   -79.76
   70.00   350.00       3.73  -50.91    3.73    0.00051    -0.10  LEFT      8.36929E-01   118.76    1.55253E-03   -77.26
   75.00   350.00       3.99  -53.39    3.99    0.00032    -0.08  LEFT      8.63104E-01   118.52    1.16609E-03   -75.21
   80.00   350.00       4.18  -56.90    4.18    0.00018    -0.05  LEFT      8.81868E-01   118.35    7.78397E-04   -73.69
   85.00   350.00       4.29  -62.92    4.29    0.00008    -0.02  LEFT      8.93149E-01   118.24    3.89545E-04   -72.76
   90.00   350.00       4.33 -999.99    4.33    0.00000     0.00  LINEAR    8.96912E-01   118.21    4.75128E-13  -133.53
    0.00   355.00     -41.44  -39.91  -37.60    0.00076    50.04  LEFT      4.61538E-03  -121.95    5.50852E-03  -121.86
    5.00   355.00     -19.91  -40.08  -19.87    0.08673    -2.62  LEFT      5.50577E-02   123.80    5.39892E-03  -118.61
   10.00   355.00     -13.19  -40.33  -13.18    0.03711    -1.35  LEFT      1.19389E-01   122.44    5.24476E-03  -115.25
   15.00   355.00      -9.18  -40.66   -9.17    0.02161    -0.89  LEFT      1.89472E-01   122.41    5.05036E-03  -111.77
   20.00   355.00      -6.31  -41.06   -6.31    0.01416    -0.66  LEFT      2.63635E-01   122.59    4.82058E-03  -108.18
   25.00   355.00      -4.09  -41.55   -4.09    0.00984    -0.52  LEFT      3.40194E-01   122.79    4.56060E-03  -104.47
   30.00   355.00      -2.31  -42.11   -2.31    0.00706    -0.42  LEFT      4.17476E-01   122.95    4.27572E-03  -100.65
   35.00   355.00      -0.85  -42.75   -0.85    0.00515    -0.35  LEFT      4.93864E-01   123.08    3.97101E-03   -96.75
   40.00   355.00       0.36  -43.48    0.36    0.00378    -0.30  LEFT      5.67846E-01   123.16    3.65103E-03   -92.80
   45.00   355.00       1.37  -44.31    1.37    0.00276    -0.25  LEFT      6.38048E-01   123.21    3.31945E-03   -88.86
   50.00   355.00       2.22  -45.25    2.22    0.00200    -0.21  LEFT      7.03268E-01   123.24    2.97887E-03   -84.99
   55.00   355.00       2.92  -46.33    2.92    0.00143    -0.18  LEFT      7.62500E-01   123.24    2.63073E-03   -81.29
   60.00   355.00       3.50  -47.59    3.50    0.00100    -0.15  LEFT      8.14940E-01   123.24    2.27551E-03   -77.84
   65.00   355.00       3.96  -49.09    3.96    0.00069    -0.12  LEFT      8.59982E-01   123.22    1.91306E-03   -74.73
   70.00   355.00       4.33  -50.96    4.33    0.00045    -0.10  LEFT      8.97204E-01   123.21    1.54308E-03   -72.06
   75.00   355.00       4.61  -53.40    4.61    0.00028    -0.07  LEFT      9.26332E-01   123.19    1.16562E-03   -69.89
   80.00   355.00       4.80  -56.87    4.80    0.00016    -0.05  LEFT      9.47208E-01   123.18    7.81424E-04   -68.30
   85.00   355.00       4.92  -62.86    4.92    0.00007    -0.02  LEFT      9.59756E-01   123.17    3.92102E-04   -67.33
   90.00   355.00       4.95 -999.99    4.95    0.00000     0.00  LINEAR    9.63941E-01   123.17    4.48840E-13  -129.54






 ***** DATA CARD NO.  9   EN   0     0     0     0  0.00000E+00  0.00000E+00  0.00000E+00  0.00000E+00  0.00000E+00  0.00000E+00

 RUN TIME =   258.469
