1



                                 *********************************************

                                    NUMERICAL ELECTROMAGNETICS CODE (NEC-2D)

                                 *********************************************




                                     - - - - COMMENTS - - - -


                                                                                                     
                                                                                                     




                                 - - - STRUCTURE SPECIFICATION - - -

                                     COORDINATES MUST BE INPUT IN
                                     METERS OR BE SCALED TO METERS
                                     BEFORE STRUCTURE INPUT IS ENDED


  WIRE                                                                               NO. OF    FIRST  LAST     TAG
  NO.        X1         Y1         Z1          X2         Y2         Z2      RADIUS   SEG.     SEG.   SEG.     NO.
     1   -7.50000   -7.50000   -5.00000    -7.50000   -7.50000    5.00000    0.00100     20        1    20     101
     2    7.50000   -7.50000   -5.00000     7.50000   -7.50000    5.00000    0.00100     20       21    40     102
     3   -7.50000    7.50000   -5.00000    -7.50000    7.50000    5.00000    0.00100     20       41    60     103
     4    7.50000    7.50000   -5.00000     7.50000    7.50000    5.00000    0.00100     20       61    80     104

   TOTAL SEGMENTS USED=   80     NO. SEG. IN A SYMMETRIC CELL=   80     SYMMETRY FLAG=  0


         - MULTIPLE WIRE JUNCTIONS -
 JUNCTION    SEGMENTS  (- FOR END 1, + FOR END 2)
  NONE




                                 - - - - SEGMENTATION DATA - - - -

                                        COORDINATES IN METERS

                         I+ AND I- INDICATE THE SEGMENTS BEFORE AND AFTER I


  SEG.   COORDINATES OF SEG. CENTER     SEG.     ORIENTATION ANGLES    WIRE    CONNECTION DATA   TAG
  NO.       X         Y         Z       LENGTH     ALPHA     BETA      RADIUS    I-   I    I+    NO.
     1  -7.50000  -7.50000  -4.75000   0.50000   90.00000   0.00000   0.00100     0    1    2    101
     2  -7.50000  -7.50000  -4.25000   0.50000   90.00000   0.00000   0.00100     1    2    3    101
     3  -7.50000  -7.50000  -3.75000   0.50000   90.00000   0.00000   0.00100     2    3    4    101
     4  -7.50000  -7.50000  -3.25000   0.50000   90.00000   0.00000   0.00100     3    4    5    101
     5  -7.50000  -7.50000  -2.75000   0.50000   90.00000   0.00000   0.00100     4    5    6    101
     6  -7.50000  -7.50000  -2.25000   0.50000   90.00000   0.00000   0.00100     5    6    7    101
     7  -7.50000  -7.50000  -1.75000   0.50000   90.00000   0.00000   0.00100     6    7    8    101
     8  -7.50000  -7.50000  -1.25000   0.50000   90.00000   0.00000   0.00100     7    8    9    101
     9  -7.50000  -7.50000  -0.75000   0.50000   90.00000   0.00000   0.00100     8    9   10    101
    10  -7.50000  -7.50000  -0.25000   0.50000   90.00000   0.00000   0.00100     9   10   11    101
    11  -7.50000  -7.50000   0.25000   0.50000   90.00000   0.00000   0.00100    10   11   12    101
    12  -7.50000  -7.50000   0.75000   0.50000   90.00000   0.00000   0.00100    11   12   13    101
    13  -7.50000  -7.50000   1.25000   0.50000   90.00000   0.00000   0.00100    12   13   14    101
    14  -7.50000  -7.50000   1.75000   0.50000   90.00000   0.00000   0.00100    13   14   15    101
    15  -7.50000  -7.50000   2.25000   0.50000   90.00000   0.00000   0.00100    14   15   16    101
    16  -7.50000  -7.50000   2.75000   0.50000   90.00000   0.00000   0.00100    15   16   17    101
    17  -7.50000  -7.50000   3.25000   0.50000   90.00000   0.00000   0.00100    16   17   18    101
    18  -7.50000  -7.50000   3.75000   0.50000   90.00000   0.00000   0.00100    17   18   19    101
    19  -7.50000  -7.50000   4.25000   0.50000   90.00000   0.00000   0.00100    18   19   20    101
    20  -7.50000  -7.50000   4.75000   0.50000   90.00000   0.00000   0.00100    19   20    0    101
    21   7.50000  -7.50000  -4.75000   0.50000   90.00000   0.00000   0.00100     0   21   22    102
    22   7.50000  -7.50000  -4.25000   0.50000   90.00000   0.00000   0.00100    21   22   23    102
    23   7.50000  -7.50000  -3.75000   0.50000   90.00000   0.00000   0.00100    22   23   24    102
    24   7.50000  -7.50000  -3.25000   0.50000   90.00000   0.00000   0.00100    23   24   25    102
    25   7.50000  -7.50000  -2.75000   0.50000   90.00000   0.00000   0.00100    24   25   26    102
    26   7.50000  -7.50000  -2.25000   0.50000   90.00000   0.00000   0.00100    25   26   27    102
    27   7.50000  -7.50000  -1.75000   0.50000   90.00000   0.00000   0.00100    26   27   28    102
    28   7.50000  -7.50000  -1.25000   0.50000   90.00000   0.00000   0.00100    27   28   29    102
    29   7.50000  -7.50000  -0.75000   0.50000   90.00000   0.00000   0.00100    28   29   30    102
    30   7.50000  -7.50000  -0.25000   0.50000   90.00000   0.00000   0.00100    29   30   31    102
    31   7.50000  -7.50000   0.25000   0.50000   90.00000   0.00000   0.00100    30   31   32    102
    32   7.50000  -7.50000   0.75000   0.50000   90.00000   0.00000   0.00100    31   32   33    102
    33   7.50000  -7.50000   1.25000   0.50000   90.00000   0.00000   0.00100    32   33   34    102
    34   7.50000  -7.50000   1.75000   0.50000   90.00000   0.00000   0.00100    33   34   35    102
    35   7.50000  -7.50000   2.25000   0.50000   90.00000   0.00000   0.00100    34   35   36    102
    36   7.50000  -7.50000   2.75000   0.50000   90.00000   0.00000   0.00100    35   36   37    102
    37   7.50000  -7.50000   3.25000   0.50000   90.00000   0.00000   0.00100    36   37   38    102
    38   7.50000  -7.50000   3.75000   0.50000   90.00000   0.00000   0.00100    37   38   39    102
    39   7.50000  -7.50000   4.25000   0.50000   90.00000   0.00000   0.00100    38   39   40    102
    40   7.50000  -7.50000   4.75000   0.50000   90.00000   0.00000   0.00100    39   40    0    102
    41  -7.50000   7.50000  -4.75000   0.50000   90.00000   0.00000   0.00100     0   41   42    103
    42  -7.50000   7.50000  -4.25000   0.50000   90.00000   0.00000   0.00100    41   42   43    103
    43  -7.50000   7.50000  -3.75000   0.50000   90.00000   0.00000   0.00100    42   43   44    103
    44  -7.50000   7.50000  -3.25000   0.50000   90.00000   0.00000   0.00100    43   44   45    103
    45  -7.50000   7.50000  -2.75000   0.50000   90.00000   0.00000   0.00100    44   45   46    103
    46  -7.50000   7.50000  -2.25000   0.50000   90.00000   0.00000   0.00100    45   46   47    103
    47  -7.50000   7.50000  -1.75000   0.50000   90.00000   0.00000   0.00100    46   47   48    103
    48  -7.50000   7.50000  -1.25000   0.50000   90.00000   0.00000   0.00100    47   48   49    103
    49  -7.50000   7.50000  -0.75000   0.50000   90.00000   0.00000   0.00100    48   49   50    103
    50  -7.50000   7.50000  -0.25000   0.50000   90.00000   0.00000   0.00100    49   50   51    103
    51  -7.50000   7.50000   0.25000   0.50000   90.00000   0.00000   0.00100    50   51   52    103
    52  -7.50000   7.50000   0.75000   0.50000   90.00000   0.00000   0.00100    51   52   53    103
    53  -7.50000   7.50000   1.25000   0.50000   90.00000   0.00000   0.00100    52   53   54    103
    54  -7.50000   7.50000   1.75000   0.50000   90.00000   0.00000   0.00100    53   54   55    103
    55  -7.50000   7.50000   2.25000   0.50000   90.00000   0.00000   0.00100    54   55   56    103
    56  -7.50000   7.50000   2.75000   0.50000   90.00000   0.00000   0.00100    55   56   57    103
    57  -7.50000   7.50000   3.25000   0.50000   90.00000   0.00000   0.00100    56   57   58    103
    58  -7.50000   7.50000   3.75000   0.50000   90.00000   0.00000   0.00100    57   58   59    103
    59  -7.50000   7.50000   4.25000   0.50000   90.00000   0.00000   0.00100    58   59   60    103
    60  -7.50000   7.50000   4.75000   0.50000   90.00000   0.00000   0.00100    59   60    0    103
    61   7.50000   7.50000  -4.75000   0.50000   90.00000   0.00000   0.00100     0   61   62    104
    62   7.50000   7.50000  -4.25000   0.50000   90.00000   0.00000   0.00100    61   62   63    104
    63   7.50000   7.50000  -3.75000   0.50000   90.00000   0.00000   0.00100    62   63   64    104
    64   7.50000   7.50000  -3.25000   0.50000   90.00000   0.00000   0.00100    63   64   65    104
    65   7.50000   7.50000  -2.75000   0.50000   90.00000   0.00000   0.00100    64   65   66    104
    66   7.50000   7.50000  -2.25000   0.50000   90.00000   0.00000   0.00100    65   66   67    104
    67   7.50000   7.50000  -1.75000   0.50000   90.00000   0.00000   0.00100    66   67   68    104
    68   7.50000   7.50000  -1.25000   0.50000   90.00000   0.00000   0.00100    67   68   69    104
    69   7.50000   7.50000  -0.75000   0.50000   90.00000   0.00000   0.00100    68   69   70    104
    70   7.50000   7.50000  -0.25000   0.50000   90.00000   0.00000   0.00100    69   70   71    104
    71   7.50000   7.50000   0.25000   0.50000   90.00000   0.00000   0.00100    70   71   72    104
    72   7.50000   7.50000   0.75000   0.50000   90.00000   0.00000   0.00100    71   72   73    104
    73   7.50000   7.50000   1.25000   0.50000   90.00000   0.00000   0.00100    72   73   74    104
    74   7.50000   7.50000   1.75000   0.50000   90.00000   0.00000   0.00100    73   74   75    104
    75   7.50000   7.50000   2.25000   0.50000   90.00000   0.00000   0.00100    74   75   76    104
    76   7.50000   7.50000   2.75000   0.50000   90.00000   0.00000   0.00100    75   76   77    104
    77   7.50000   7.50000   3.25000   0.50000   90.00000   0.00000   0.00100    76   77   78    104
    78   7.50000   7.50000   3.75000   0.50000   90.00000   0.00000   0.00100    77   78   79    104
    79   7.50000   7.50000   4.25000   0.50000   90.00000   0.00000   0.00100    78   79   80    104
    80   7.50000   7.50000   4.75000   0.50000   90.00000   0.00000   0.00100    79   80    0    104






 ***** DATA CARD NO.  1   GN  -1     0     0     0  0.00000E+00  0.00000E+00  0.00000E+00  0.00000E+00  0.00000E+00  0.00000E+00
 ***** DATA CARD NO.  2   FR   0     0     0     0  1.00000E+01  0.00000E+00  0.00000E+00  0.00000E+00  0.00000E+00  0.00000E+00
 ***** DATA CARD NO.  3   EX   0   101    10     0  7.48800E+01  1.10700E+01  0.00000E+00  0.00000E+00  0.00000E+00  0.00000E+00
 ***** DATA CARD NO.  4   EX   0   102    10     0 -4.70900E+01 -5.54350E+01  0.00000E+00  0.00000E+00  0.00000E+00  0.00000E+00
 ***** DATA CARD NO.  5   EX   0   103    10     0 -4.70900E+01 -5.54350E+01  0.00000E+00  0.00000E+00  0.00000E+00  0.00000E+00
 ***** DATA CARD NO.  6   EX   0   104    10     0 -2.70240E+01  3.06750E+01  0.00000E+00  0.00000E+00  0.00000E+00  0.00000E+00
 ***** DATA CARD NO.  7   RP   0    19    72  1010  0.00000E+00  0.00000E+00  5.00000E+00  5.00000E+00  0.00000E+00  0.00000E+00




                                 - - - - - - FREQUENCY - - - - - -

                                    FREQUENCY= 1.0000E+01 MHZ
                                    WAVELENGTH= 2.9980E+01 METERS




                    APPROXIMATE INTEGRATION EMPLOYED FOR SEGMENTS MORE THAN   1.000 WAVELENGTHS APART



                               - - - STRUCTURE IMPEDANCE LOADING - - -

                                   THIS STRUCTURE IS NOT LOADED



                                  - - - ANTENNA ENVIRONMENT - - -

                                            FREE SPACE



                                - - - MATRIX TIMING - - -

                        FILL=    0.016 SEC.,  FACTOR=    0.000 SEC.



                                          - - - ANTENNA INPUT PARAMETERS - - -

   TAG   SEG.    VOLTAGE (VOLTS)         CURRENT (AMPS)         IMPEDANCE (OHMS)        ADMITTANCE (MHOS)      POWER
   NO.   NO.    REAL        IMAG.       REAL        IMAG.       REAL        IMAG.       REAL        IMAG.     (WATTS)
   101    10 7.48800E+01 1.10700E+01-1.58384E-02 1.52720E-01 2.14061E+01-4.92530E+02 8.80748E-05 2.02650E-03 2.52315E-01
   102    30-4.70900E+01-5.54350E+01 1.06141E-01-9.92952E-02 2.39652E+01-4.99860E+02 9.56947E-05 1.99597E-03 2.53137E-01
   103    50-4.70900E+01-5.54350E+01 1.06141E-01-9.92952E-02 2.39652E+01-4.99860E+02 9.56947E-05 1.99597E-03 2.53137E-01
   104    70-2.70240E+01 3.06750E+01-6.80242E-02-4.34158E-02 7.77779E+01-5.00583E+02 3.03070E-04 1.95058E-03 2.53253E-01



                             - - - CURRENTS AND LOCATION - - -

                                 DISTANCES IN WAVELENGTHS


  SEG.  TAG    COORD. OF SEG. CENTER     SEG.            - - - CURRENT (AMPS) - - -
  NO.   NO.     X        Y        Z      LENGTH     REAL        IMAG.       MAG.        PHASE
     1  101  -0.2502  -0.2502  -0.1584  0.01668  -9.8716E-04  1.1468E-02  1.1511E-02   94.920
     2  101  -0.2502  -0.2502  -0.1418  0.01668  -2.7939E-03  3.1839E-02  3.1962E-02   95.015
     3  101  -0.2502  -0.2502  -0.1251  0.01668  -4.5401E-03  5.0740E-02  5.0943E-02   95.113
     4  101  -0.2502  -0.2502  -0.1084  0.01668  -6.2649E-03  6.8655E-02  6.8941E-02   95.214
     5  101  -0.2502  -0.2502  -0.0917  0.01668  -7.9681E-03  8.5596E-02  8.5966E-02   95.318
     6  101  -0.2502  -0.2502  -0.0751  0.01668  -9.6445E-03  1.0151E-01  1.0196E-01   95.428
     7  101  -0.2502  -0.2502  -0.0584  0.01668  -1.1290E-02  1.1633E-01  1.1688E-01   95.543
     8  101  -0.2502  -0.2502  -0.0417  0.01668  -1.2906E-02  1.3007E-01  1.3070E-01   95.667
     9  101  -0.2502  -0.2502  -0.0250  0.01668  -1.4528E-02  1.4291E-01  1.4365E-01   95.805
    10  101  -0.2502  -0.2502  -0.0083  0.01668  -1.5838E-02  1.5272E-01  1.5354E-01   95.921
    11  101  -0.2502  -0.2502   0.0083  0.01668  -1.4707E-02  1.4507E-01  1.4581E-01   95.789
    12  101  -0.2502  -0.2502   0.0250  0.01668  -1.3263E-02  1.3436E-01  1.3501E-01   95.638
    13  101  -0.2502  -0.2502   0.0417  0.01668  -1.1822E-02  1.2273E-01  1.2330E-01   95.502
    14  101  -0.2502  -0.2502   0.0584  0.01668  -1.0348E-02  1.0996E-01  1.1045E-01   95.376
    15  101  -0.2502  -0.2502   0.0751  0.01668  -8.8391E-03  9.6055E-02  9.6460E-02   95.258
    16  101  -0.2502  -0.2502   0.0917  0.01668  -7.2986E-03  8.1062E-02  8.1390E-02   95.145
    17  101  -0.2502  -0.2502   0.1084  0.01668  -5.7337E-03  6.5058E-02  6.5310E-02   95.037
    18  101  -0.2502  -0.2502   0.1251  0.01668  -4.1510E-03  4.8104E-02  4.8283E-02   94.932
    19  101  -0.2502  -0.2502   0.1418  0.01668  -2.5517E-03  3.0197E-02  3.0305E-02   94.830
    20  101  -0.2502  -0.2502   0.1584  0.01668  -9.0046E-04  1.0880E-02  1.0917E-02   94.731
    21  102   0.2502  -0.2502  -0.1584  0.01668   7.7670E-03 -7.5531E-03  1.0834E-02  -44.200
    22  102   0.2502  -0.2502  -0.1418  0.01668   2.1616E-02 -2.0945E-02  3.0099E-02  -44.097
    23  102   0.2502  -0.2502  -0.1251  0.01668   3.4534E-02 -3.3337E-02  4.7999E-02  -43.990
    24  102   0.2502  -0.2502  -0.1084  0.01668   4.6848E-02 -4.5049E-02  6.4994E-02  -43.879
    25  102   0.2502  -0.2502  -0.0917  0.01668   5.8565E-02 -5.6090E-02  8.1092E-02  -43.763
    26  102   0.2502  -0.2502  -0.0751  0.01668   6.9648E-02 -6.6423E-02  9.6244E-02  -43.642
    27  102   0.2502  -0.2502  -0.0584  0.01668   8.0060E-02 -7.6011E-02  1.1040E-01  -43.514
    28  102   0.2502  -0.2502  -0.0417  0.01668   8.9799E-02 -8.4847E-02  1.2354E-01  -43.376
    29  102   0.2502  -0.2502  -0.0250  0.01668   9.9025E-02 -9.3061E-02  1.3589E-01  -43.222
    30  102   0.2502  -0.2502  -0.0083  0.01668   1.0614E-01 -9.9295E-02  1.4535E-01  -43.092
    31  102   0.2502  -0.2502   0.0083  0.01668   1.0048E-01 -9.4483E-02  1.3792E-01  -43.239
    32  102   0.2502  -0.2502   0.0250  0.01668   9.2691E-02 -8.7679E-02  1.2759E-01  -43.409
    33  102   0.2502  -0.2502   0.0417  0.01668   8.4369E-02 -8.0232E-02  1.1643E-01  -43.560
    34  102   0.2502  -0.2502   0.0584  0.01668   7.5345E-02 -7.2004E-02  1.0422E-01  -43.701
    35  102   0.2502  -0.2502   0.0751  0.01668   6.5614E-02 -6.2993E-02  9.0958E-02  -43.833
    36  102   0.2502  -0.2502   0.0917  0.01668   5.5211E-02 -5.3238E-02  7.6697E-02  -43.958
    37  102   0.2502  -0.2502   0.1084  0.01668   4.4187E-02 -4.2786E-02  6.1507E-02  -44.077
    38  102   0.2502  -0.2502   0.1251  0.01668   3.2585E-02 -3.1679E-02  4.5445E-02  -44.192
    39  102   0.2502  -0.2502   0.1418  0.01668   2.0402E-02 -1.9912E-02  2.8508E-02  -44.304
    40  102   0.2502  -0.2502   0.1584  0.01668   7.3324E-03 -7.1832E-03  1.0265E-02  -44.411
    41  103  -0.2502   0.2502  -0.1584  0.01668   7.7670E-03 -7.5531E-03  1.0834E-02  -44.200
    42  103  -0.2502   0.2502  -0.1418  0.01668   2.1616E-02 -2.0945E-02  3.0099E-02  -44.097
    43  103  -0.2502   0.2502  -0.1251  0.01668   3.4534E-02 -3.3337E-02  4.7999E-02  -43.990
    44  103  -0.2502   0.2502  -0.1084  0.01668   4.6848E-02 -4.5049E-02  6.4994E-02  -43.879
    45  103  -0.2502   0.2502  -0.0917  0.01668   5.8565E-02 -5.6090E-02  8.1092E-02  -43.763
    46  103  -0.2502   0.2502  -0.0751  0.01668   6.9648E-02 -6.6423E-02  9.6244E-02  -43.642
    47  103  -0.2502   0.2502  -0.0584  0.01668   8.0060E-02 -7.6011E-02  1.1040E-01  -43.514
    48  103  -0.2502   0.2502  -0.0417  0.01668   8.9799E-02 -8.4847E-02  1.2354E-01  -43.376
    49  103  -0.2502   0.2502  -0.0250  0.01668   9.9025E-02 -9.3061E-02  1.3589E-01  -43.222
    50  103  -0.2502   0.2502  -0.0083  0.01668   1.0614E-01 -9.9295E-02  1.4535E-01  -43.092
    51  103  -0.2502   0.2502   0.0083  0.01668   1.0048E-01 -9.4483E-02  1.3792E-01  -43.239
    52  103  -0.2502   0.2502   0.0250  0.01668   9.2691E-02 -8.7679E-02  1.2759E-01  -43.409
    53  103  -0.2502   0.2502   0.0417  0.01668   8.4369E-02 -8.0232E-02  1.1643E-01  -43.560
    54  103  -0.2502   0.2502   0.0584  0.01668   7.5345E-02 -7.2004E-02  1.0422E-01  -43.701
    55  103  -0.2502   0.2502   0.0751  0.01668   6.5614E-02 -6.2993E-02  9.0958E-02  -43.833
    56  103  -0.2502   0.2502   0.0917  0.01668   5.5211E-02 -5.3238E-02  7.6697E-02  -43.958
    57  103  -0.2502   0.2502   0.1084  0.01668   4.4187E-02 -4.2786E-02  6.1507E-02  -44.077
    58  103  -0.2502   0.2502   0.1251  0.01668   3.2585E-02 -3.1679E-02  4.5445E-02  -44.192
    59  103  -0.2502   0.2502   0.1418  0.01668   2.0402E-02 -1.9912E-02  2.8508E-02  -44.304
    60  103  -0.2502   0.2502   0.1584  0.01668   7.3324E-03 -7.1832E-03  1.0265E-02  -44.411
    61  104   0.2502   0.2502  -0.1584  0.01668  -5.2653E-03 -2.9142E-03  6.0180E-03 -151.036
    62  104   0.2502   0.2502  -0.1418  0.01668  -1.4579E-02 -8.1803E-03  1.6717E-02 -150.704
    63  104   0.2502   0.2502  -0.1251  0.01668  -2.3169E-02 -1.3184E-02  2.6657E-02 -150.358
    64  104   0.2502   0.2502  -0.1084  0.01668  -3.1257E-02 -1.8046E-02  3.6092E-02 -150.001
    65  104   0.2502   0.2502  -0.0917  0.01668  -3.8849E-02 -2.2767E-02  4.5028E-02 -149.628
    66  104   0.2502   0.2502  -0.0751  0.01668  -4.5918E-02 -2.7333E-02  5.3437E-02 -149.237
    67  104   0.2502   0.2502  -0.0584  0.01668  -5.2438E-02 -3.1731E-02  6.1291E-02 -148.821
    68  104   0.2502   0.2502  -0.0417  0.01668  -5.8402E-02 -3.5966E-02  6.8589E-02 -148.374
    69  104   0.2502   0.2502  -0.0250  0.01668  -6.3893E-02 -4.0120E-02  7.5445E-02 -147.875
    70  104   0.2502   0.2502  -0.0083  0.01668  -6.8024E-02 -4.3416E-02  8.0698E-02 -147.452
    71  104   0.2502   0.2502   0.0083  0.01668  -6.4889E-02 -4.0655E-02  7.6573E-02 -147.932
    72  104   0.2502   0.2502   0.0250  0.01668  -6.0386E-02 -3.7032E-02  7.0837E-02 -148.481
    73  104   0.2502   0.2502   0.0417  0.01668  -5.5395E-02 -3.3321E-02  6.4644E-02 -148.973
    74  104   0.2502   0.2502   0.0584  0.01668  -4.9826E-02 -2.9435E-02  5.7870E-02 -149.427
    75  104   0.2502   0.2502   0.0751  0.01668  -4.3681E-02 -2.5368E-02  5.0513E-02 -149.854
    76  104   0.2502   0.2502   0.0917  0.01668  -3.6988E-02 -2.1133E-02  4.2600E-02 -150.258
    77  104   0.2502   0.2502   0.1084  0.01668  -2.9780E-02 -1.6750E-02  3.4167E-02 -150.644
    78  104   0.2502   0.2502   0.1251  0.01668  -2.2086E-02 -1.2235E-02  2.5249E-02 -151.014
    79  104   0.2502   0.2502   0.1418  0.01668  -1.3904E-02 -7.5896E-03  1.5841E-02 -151.373
    80  104   0.2502   0.2502   0.1584  0.01668  -5.0236E-03 -2.7029E-03  5.7046E-03 -151.718



                                        - - - POWER BUDGET - - -

                                           INPUT POWER   = 1.0118E+00 WATTS
                                           RADIATED POWER= 1.0118E+00 WATTS
                                           STRUCTURE LOSS= 0.0000E+00 WATTS
                                           NETWORK LOSS  = 0.0000E+00 WATTS
                                           EFFICIENCY    = 100.00 PERCENT



                                                - - - RADIATION PATTERNS - - -

  - - ANGLES - -       - DIRECTIVE GAINS -       - - - POLARIZATION - - -    - - - E(THETA) - - -    - - - E(PHI) - - -
  THETA     PHI        VERT.   HOR.    TOTAL      AXIAL     TILT   SENSE     MAGNITUDE    PHASE      MAGNITUDE    PHASE 
 DEGREES  DEGREES       DB      DB      DB        RATIO     DEG.              VOLTS/M    DEGREES      VOLTS/M    DEGREES
    0.00     0.00    -999.99 -999.99 -999.99    0.00000     0.00            0.00000E+00     0.00    0.00000E+00     0.00
    5.00     0.00     -23.79 -999.99  -23.79    0.00000     0.00  LINEAR    5.03288E-01    57.28    0.00000E+00     0.00
   10.00     0.00     -16.80 -999.99  -16.80    0.00000     0.00  LINEAR    1.12644E+00    59.53    0.00000E+00     0.00
   15.00     0.00     -12.55 -999.99  -12.55    0.00000     0.00  LINEAR    1.83573E+00    61.35    0.00000E+00     0.00
   20.00     0.00      -9.55 -999.99   -9.55    0.00000     0.00  LINEAR    2.59334E+00    62.89    0.00000E+00     0.00
   25.00     0.00      -7.30 -999.99   -7.30    0.00000     0.00  LINEAR    3.36087E+00    64.24    0.00000E+00     0.00
   30.00     0.00      -5.57 -999.99   -5.57    0.00000     0.00  LINEAR    4.10254E+00    65.46    0.00000E+00     0.00
   35.00     0.00      -4.23 -999.99   -4.23    0.00000     0.00  LINEAR    4.78792E+00    66.59    0.00000E+00     0.00
   40.00     0.00      -3.19 -999.99   -3.19    0.00000     0.00  LINEAR    5.39394E+00    67.65    0.00000E+00     0.00
   45.00     0.00      -2.40 -999.99   -2.40    0.00000     0.00  LINEAR    5.90599E+00    68.66    0.00000E+00     0.00
   50.00     0.00      -1.82 -999.99   -1.82    0.00000     0.00  LINEAR    6.31815E+00    69.62    0.00000E+00     0.00
   55.00     0.00      -1.40 -999.99   -1.40    0.00000     0.00  LINEAR    6.63258E+00    70.53    0.00000E+00     0.00
   60.00     0.00      -1.11 -999.99   -1.11    0.00000     0.00  LINEAR    6.85807E+00    71.39    0.00000E+00     0.00
   65.00     0.00      -0.92 -999.99   -0.92    0.00000     0.00  LINEAR    7.00829E+00    72.18    0.00000E+00     0.00
   70.00     0.00      -0.80 -999.99   -0.80    0.00000     0.00  LINEAR    7.09956E+00    72.88    0.00000E+00     0.00
   75.00     0.00      -0.75 -999.99   -0.75    0.00000     0.00  LINEAR    7.14874E+00    73.47    0.00000E+00     0.00
   80.00     0.00      -0.72 -999.99   -0.72    0.00000     0.00  LINEAR    7.17122E+00    73.93    0.00000E+00     0.00
   85.00     0.00      -0.71 -999.99   -0.71    0.00000     0.00  LINEAR    7.17923E+00    74.24    0.00000E+00     0.00
   90.00     0.00      -0.71 -999.99   -0.71    0.00000     0.00  LINEAR    7.18062E+00    74.38    0.00000E+00     0.00
    0.00     5.00    -999.99 -999.99 -999.99    0.00000     0.00            0.00000E+00     0.00    0.00000E+00     0.00
    5.00     5.00     -23.66 -999.99  -23.66    0.00000     0.00  LINEAR    5.11328E-01    57.43    0.00000E+00     0.00
   10.00     5.00     -16.50 -999.99  -16.50    0.00000     0.00  LINEAR    1.16511E+00    59.61    0.00000E+00     0.00
   15.00     5.00     -12.10 -999.99  -12.10    0.00000     0.00  LINEAR    1.93453E+00    61.21    0.00000E+00     0.00
   20.00     5.00      -8.93 -999.99   -8.93    0.00000     0.00  LINEAR    2.78464E+00    62.41    0.00000E+00     0.00
   25.00     5.00      -6.52 -999.99   -6.52    0.00000     0.00  LINEAR    3.67588E+00    63.34    0.00000E+00     0.00
   30.00     5.00      -4.64 -999.99   -4.64    0.00000     0.00  LINEAR    4.56777E+00    64.08    0.00000E+00     0.00
   35.00     5.00      -3.15 -999.99   -3.15    0.00000     0.00  LINEAR    5.42252E+00    64.68    0.00000E+00     0.00
   40.00     5.00      -1.97 -999.99   -1.97    0.00000     0.00  LINEAR    6.20807E+00    65.17    0.00000E+00     0.00
   45.00     5.00      -1.05 -999.99   -1.05    0.00000     0.00  LINEAR    6.90046E+00    65.58    0.00000E+00     0.00
   50.00     5.00      -0.35 -999.99   -0.35    0.00000     0.00  LINEAR    7.48510E+00    65.93    0.00000E+00     0.00
   55.00     5.00       0.19 -999.99    0.19    0.00000     0.00  LINEAR    7.95704E+00    66.24    0.00000E+00     0.00
   60.00     5.00       0.57 -999.99    0.57    0.00000     0.00  LINEAR    8.32004E+00    66.51    0.00000E+00     0.00
   65.00     5.00       0.85 -999.99    0.85    0.00000     0.00  LINEAR    8.58491E+00    66.75    0.00000E+00     0.00
   70.00     5.00       1.03 -999.99    1.03    0.00000     0.00  LINEAR    8.76717E+00    66.95    0.00000E+00     0.00
   75.00     5.00       1.14 -999.99    1.14    0.00000     0.00  LINEAR    8.88438E+00    67.13    0.00000E+00     0.00
   80.00     5.00       1.21 -999.99    1.21    0.00000     0.00  LINEAR    8.95349E+00    67.27    0.00000E+00     0.00
   85.00     5.00       1.24 -999.99    1.24    0.00000     0.00  LINEAR    8.98852E+00    67.38    0.00000E+00     0.00
   90.00     5.00       1.25 -999.99    1.25    0.00000     0.00  LINEAR    8.99867E+00    67.45    0.00000E+00     0.00
    0.00    10.00    -999.99 -999.99 -999.99    0.00000     0.00            0.00000E+00     0.00    0.00000E+00     0.00
    5.00    10.00     -23.53 -999.99  -23.53    0.00000     0.00  LINEAR    5.18697E-01    57.56    0.00000E+00     0.00
   10.00    10.00     -16.24 -999.99  -16.24    0.00000     0.00  LINEAR    1.20084E+00    59.66    0.00000E+00     0.00
   15.00    10.00     -11.70 -999.99  -11.70    0.00000     0.00  LINEAR    2.02623E+00    61.06    0.00000E+00     0.00
   20.00    10.00      -8.40 -999.99   -8.40    0.00000     0.00  LINEAR    2.96281E+00    61.98    0.00000E+00     0.00
   25.00    10.00      -5.85 -999.99   -5.85    0.00000     0.00  LINEAR    3.97024E+00    62.58    0.00000E+00     0.00
   30.00    10.00      -3.84 -999.99   -3.84    0.00000     0.00  LINEAR    5.00409E+00    62.94    0.00000E+00     0.00
   35.00    10.00      -2.24 -999.99   -2.24    0.00000     0.00  LINEAR    6.02014E+00    63.15    0.00000E+00     0.00
   40.00    10.00      -0.95 -999.99   -0.95    0.00000     0.00  LINEAR    6.97848E+00    63.25    0.00000E+00     0.00
   45.00    10.00       0.06 -999.99    0.06    0.00000     0.00  LINEAR    7.84676E+00    63.27    0.00000E+00     0.00
   50.00    10.00       0.86 -999.99    0.86    0.00000     0.00  LINEAR    8.60251E+00    63.23    0.00000E+00     0.00
   55.00    10.00       1.48 -999.99    1.48    0.00000     0.00  LINEAR    9.23395E+00    63.17    0.00000E+00     0.00
   60.00    10.00       1.94 -999.99    1.94    0.00000     0.00  LINEAR    9.73964E+00    63.08    0.00000E+00     0.00
   65.00    10.00       2.28 -999.99    2.28    0.00000     0.00  LINEAR    1.01269E+01    62.99    0.00000E+00     0.00
   70.00    10.00       2.52 -999.99    2.52    0.00000     0.00  LINEAR    1.04093E+01    62.91    0.00000E+00     0.00
   75.00    10.00       2.68 -999.99    2.68    0.00000     0.00  LINEAR    1.06038E+01    62.85    0.00000E+00     0.00
   80.00    10.00       2.78 -999.99    2.78    0.00000     0.00  LINEAR    1.07275E+01    62.82    0.00000E+00     0.00
   85.00    10.00       2.83 -999.99    2.83    0.00000     0.00  LINEAR    1.07948E+01    62.81    0.00000E+00     0.00
   90.00    10.00       2.85 -999.99    2.85    0.00000     0.00  LINEAR    1.08156E+01    62.85    0.00000E+00     0.00
    0.00    15.00    -999.99 -999.99 -999.99    0.00000     0.00            0.00000E+00     0.00    0.00000E+00     0.00
    5.00    15.00     -23.42 -999.99  -23.42    0.00000     0.00  LINEAR    5.25297E-01    57.66    0.00000E+00     0.00
   10.00    15.00     -16.01 -999.99  -16.01    0.00000     0.00  LINEAR    1.23306E+00    59.70    0.00000E+00     0.00
   15.00    15.00     -11.35 -999.99  -11.35    0.00000     0.00  LINEAR    2.10926E+00    60.91    0.00000E+00     0.00
   20.00    15.00      -7.93 -999.99   -7.93    0.00000     0.00  LINEAR    3.12462E+00    61.59    0.00000E+00     0.00
   25.00    15.00      -5.29 -999.99   -5.29    0.00000     0.00  LINEAR    4.23836E+00    61.92    0.00000E+00     0.00
   30.00    15.00      -3.18 -999.99   -3.18    0.00000     0.00  LINEAR    5.40277E+00    62.01    0.00000E+00     0.00
   35.00    15.00      -1.48 -999.99   -1.48    0.00000     0.00  LINEAR    6.56821E+00    61.94    0.00000E+00     0.00
   40.00    15.00      -0.11 -999.99   -0.11    0.00000     0.00  LINEAR    7.68798E+00    61.75    0.00000E+00     0.00
   45.00    15.00       0.98 -999.99    0.98    0.00000     0.00  LINEAR    8.72244E+00    61.50    0.00000E+00     0.00
   50.00    15.00       1.85 -999.99    1.85    0.00000     0.00  LINEAR    9.64203E+00    61.20    0.00000E+00     0.00
   55.00    15.00       2.53 -999.99    2.53    0.00000     0.00  LINEAR    1.04287E+01    60.89    0.00000E+00     0.00
   60.00    15.00       3.06 -999.99    3.06    0.00000     0.00  LINEAR    1.10758E+01    60.58    0.00000E+00     0.00
   65.00    15.00       3.45 -999.99    3.45    0.00000     0.00  LINEAR    1.15869E+01    60.29    0.00000E+00     0.00
   70.00    15.00       3.73 -999.99    3.73    0.00000     0.00  LINEAR    1.19727E+01    60.04    0.00000E+00     0.00
   75.00    15.00       3.93 -999.99    3.93    0.00000     0.00  LINEAR    1.22486E+01    59.83    0.00000E+00     0.00
   80.00    15.00       4.06 -999.99    4.06    0.00000     0.00  LINEAR    1.24308E+01    59.69    0.00000E+00     0.00
   85.00    15.00       4.13 -999.99    4.13    0.00000     0.00  LINEAR    1.25333E+01    59.62    0.00000E+00     0.00
   90.00    15.00       4.15 -999.99    4.15    0.00000     0.00  LINEAR    1.25657E+01    59.64    0.00000E+00     0.00
    0.00    20.00    -999.99 -999.99 -999.99    0.00000     0.00            0.00000E+00     0.00    0.00000E+00     0.00
    5.00    20.00     -23.33 -999.99  -23.33    0.00000     0.00  LINEAR    5.31042E-01    57.75    0.00000E+00     0.00
   10.00    20.00     -15.81 -999.99  -15.81    0.00000     0.00  LINEAR    1.26125E+00    59.71    0.00000E+00     0.00
   15.00    20.00     -11.05 -999.99  -11.05    0.00000     0.00  LINEAR    2.18217E+00    60.77    0.00000E+00     0.00
   20.00    20.00      -7.55 -999.99   -7.55    0.00000     0.00  LINEAR    3.26709E+00    61.26    0.00000E+00     0.00
   25.00    20.00      -4.81 -999.99   -4.81    0.00000     0.00  LINEAR    4.47503E+00    61.38    0.00000E+00     0.00
   30.00    20.00      -2.63 -999.99   -2.63    0.00000     0.00  LINEAR    5.75569E+00    61.25    0.00000E+00     0.00
   35.00    20.00      -0.86 -999.99   -0.86    0.00000     0.00  LINEAR    7.05497E+00    60.97    0.00000E+00     0.00
   40.00    20.00       0.57 -999.99    0.57    0.00000     0.00  LINEAR    8.32051E+00    60.58    0.00000E+00     0.00
   45.00    20.00       1.73 -999.99    1.73    0.00000     0.00  LINEAR    9.50653E+00    60.14    0.00000E+00     0.00
   50.00    20.00       2.66 -999.99    2.66    0.00000     0.00  LINEAR    1.05773E+01    59.66    0.00000E+00     0.00
   55.00    20.00       3.39 -999.99    3.39    0.00000     0.00  LINEAR    1.15093E+01    59.19    0.00000E+00     0.00
   60.00    20.00       3.96 -999.99    3.96    0.00000     0.00  LINEAR    1.22909E+01    58.73    0.00000E+00     0.00
   65.00    20.00       4.40 -999.99    4.40    0.00000     0.00  LINEAR    1.29216E+01    58.31    0.00000E+00     0.00
   70.00    20.00       4.72 -999.99    4.72    0.00000     0.00  LINEAR    1.34090E+01    57.94    0.00000E+00     0.00
   75.00    20.00       4.95 -999.99    4.95    0.00000     0.00  LINEAR    1.37661E+01    57.65    0.00000E+00     0.00
   80.00    20.00       5.10 -999.99    5.10    0.00000     0.00  LINEAR    1.40074E+01    57.45    0.00000E+00     0.00
   85.00    20.00       5.18 -999.99    5.18    0.00000     0.00  LINEAR    1.41458E+01    57.34    0.00000E+00     0.00
   90.00    20.00       5.21 -999.99    5.21    0.00000     0.00  LINEAR    1.41902E+01    57.34    0.00000E+00     0.00
    0.00    25.00    -999.99 -999.99 -999.99    0.00000     0.00            0.00000E+00     0.00    0.00000E+00     0.00
    5.00    25.00     -23.25 -999.99  -23.25    0.00000     0.00  LINEAR    5.35853E-01    57.82    0.00000E+00     0.00
   10.00    25.00     -15.65 -999.99  -15.65    0.00000     0.00  LINEAR    1.28497E+00    59.72    0.00000E+00     0.00
   15.00    25.00     -10.81 -999.99  -10.81    0.00000     0.00  LINEAR    2.24368E+00    60.65    0.00000E+00     0.00
   20.00    25.00      -7.23 -999.99   -7.23    0.00000     0.00  LINEAR    3.38755E+00    60.99    0.00000E+00     0.00
   25.00    25.00      -4.43 -999.99   -4.43    0.00000     0.00  LINEAR    4.67559E+00    60.94    0.00000E+00     0.00
   30.00    25.00      -2.19 -999.99   -2.19    0.00000     0.00  LINEAR    6.05551E+00    60.65    0.00000E+00     0.00
   35.00    25.00      -0.36 -999.99   -0.36    0.00000     0.00  LINEAR    7.46968E+00    60.21    0.00000E+00     0.00
   40.00    25.00       1.12 -999.99    1.12    0.00000     0.00  LINEAR    8.86127E+00    59.68    0.00000E+00     0.00
   45.00    25.00       2.32 -999.99    2.32    0.00000     0.00  LINEAR    1.01795E+01    59.10    0.00000E+00     0.00
   50.00    25.00       3.30 -999.99    3.30    0.00000     0.00  LINEAR    1.13836E+01    58.51    0.00000E+00     0.00
   55.00    25.00       4.07 -999.99    4.07    0.00000     0.00  LINEAR    1.24452E+01    57.92    0.00000E+00     0.00
   60.00    25.00       4.68 -999.99    4.68    0.00000     0.00  LINEAR    1.33484E+01    57.36    0.00000E+00     0.00
   65.00    25.00       5.15 -999.99    5.15    0.00000     0.00  LINEAR    1.40888E+01    56.86    0.00000E+00     0.00
   70.00    25.00       5.50 -999.99    5.50    0.00000     0.00  LINEAR    1.46706E+01    56.42    0.00000E+00     0.00
   75.00    25.00       5.75 -999.99    5.75    0.00000     0.00  LINEAR    1.51041E+01    56.08    0.00000E+00     0.00
   80.00    25.00       5.92 -999.99    5.92    0.00000     0.00  LINEAR    1.54015E+01    55.83    0.00000E+00     0.00
   85.00    25.00       6.02 -999.99    6.02    0.00000     0.00  LINEAR    1.55743E+01    55.70    0.00000E+00     0.00
   90.00    25.00       6.05 -999.99    6.05    0.00000     0.00  LINEAR    1.56302E+01    55.69    0.00000E+00     0.00
    0.00    30.00    -999.99 -999.99 -999.99    0.00000     0.00            0.00000E+00     0.00    0.00000E+00     0.00
    5.00    30.00     -23.19 -999.99  -23.19    0.00000     0.00  LINEAR    5.39665E-01    57.87    0.00000E+00     0.00
   10.00    30.00     -15.53 -999.99  -15.53    0.00000     0.00  LINEAR    1.30384E+00    59.72    0.00000E+00     0.00
   15.00    30.00     -10.62 -999.99  -10.62    0.00000     0.00  LINEAR    2.29270E+00    60.55    0.00000E+00     0.00
   20.00    30.00      -6.99 -999.99   -6.99    0.00000     0.00  LINEAR    3.48372E+00    60.77    0.00000E+00     0.00
   25.00    30.00      -4.14 -999.99   -4.14    0.00000     0.00  LINEAR    4.83601E+00    60.60    0.00000E+00     0.00
   30.00    30.00      -1.85 -999.99   -1.85    0.00000     0.00  LINEAR    6.29582E+00    60.20    0.00000E+00     0.00
   35.00    30.00       0.02 -999.99    0.02    0.00000     0.00  LINEAR    7.80292E+00    59.65    0.00000E+00     0.00
   40.00    30.00       1.54 -999.99    1.54    0.00000     0.00  LINEAR    9.29706E+00    59.01    0.00000E+00     0.00
   45.00    30.00       2.78 -999.99    2.78    0.00000     0.00  LINEAR    1.07237E+01    58.34    0.00000E+00     0.00
   50.00    30.00       3.78 -999.99    3.78    0.00000     0.00  LINEAR    1.20381E+01    57.66    0.00000E+00     0.00
   55.00    30.00       4.59 -999.99    4.59    0.00000     0.00  LINEAR    1.32081E+01    57.00    0.00000E+00     0.00
   60.00    30.00       5.22 -999.99    5.22    0.00000     0.00  LINEAR    1.42140E+01    56.38    0.00000E+00     0.00
   65.00    30.00       5.72 -999.99    5.72    0.00000     0.00  LINEAR    1.50480E+01    55.82    0.00000E+00     0.00
   70.00    30.00       6.09 -999.99    6.09    0.00000     0.00  LINEAR    1.57113E+01    55.34    0.00000E+00     0.00
   75.00    30.00       6.37 -999.99    6.37    0.00000     0.00  LINEAR    1.62114E+01    54.96    0.00000E+00     0.00
   80.00    30.00       6.55 -999.99    6.55    0.00000     0.00  LINEAR    1.65581E+01    54.69    0.00000E+00     0.00
   85.00    30.00       6.66 -999.99    6.66    0.00000     0.00  LINEAR    1.67610E+01    54.55    0.00000E+00     0.00
   90.00    30.00       6.69 -999.99    6.69    0.00000     0.00  LINEAR    1.68271E+01    54.53    0.00000E+00     0.00
    0.00    35.00    -999.99 -999.99 -999.99    0.00000     0.00            0.00000E+00     0.00    0.00000E+00     0.00
    5.00    35.00     -23.14 -999.99  -23.14    0.00000     0.00  LINEAR    5.42426E-01    57.91    0.00000E+00     0.00
   10.00    35.00     -15.43 -999.99  -15.43    0.00000     0.00  LINEAR    1.31754E+00    59.72    0.00000E+00     0.00
   15.00    35.00     -10.49 -999.99  -10.49    0.00000     0.00  LINEAR    2.32836E+00    60.48    0.00000E+00     0.00
   20.00    35.00      -6.82 -999.99   -6.82    0.00000     0.00  LINEAR    3.55378E+00    60.61    0.00000E+00     0.00
   25.00    35.00      -3.93 -999.99   -3.93    0.00000     0.00  LINEAR    4.95303E+00    60.36    0.00000E+00     0.00
   30.00    35.00      -1.61 -999.99   -1.61    0.00000     0.00  LINEAR    6.47140E+00    59.88    0.00000E+00     0.00
   35.00    35.00       0.28 -999.99    0.28    0.00000     0.00  LINEAR    8.04687E+00    59.25    0.00000E+00     0.00
   40.00    35.00       1.83 -999.99    1.83    0.00000     0.00  LINEAR    9.61683E+00    58.55    0.00000E+00     0.00
   45.00    35.00       3.10 -999.99    3.10    0.00000     0.00  LINEAR    1.11241E+01    57.82    0.00000E+00     0.00
   50.00    35.00       4.12 -999.99    4.12    0.00000     0.00  LINEAR    1.25211E+01    57.08    0.00000E+00     0.00
   55.00    35.00       4.95 -999.99    4.95    0.00000     0.00  LINEAR    1.37729E+01    56.37    0.00000E+00     0.00
   60.00    35.00       5.61 -999.99    5.61    0.00000     0.00  LINEAR    1.48570E+01    55.71    0.00000E+00     0.00
   65.00    35.00       6.12 -999.99    6.12    0.00000     0.00  LINEAR    1.57629E+01    55.12    0.00000E+00     0.00
   70.00    35.00       6.51 -999.99    6.51    0.00000     0.00  LINEAR    1.64892E+01    54.62    0.00000E+00     0.00
   75.00    35.00       6.80 -999.99    6.80    0.00000     0.00  LINEAR    1.70411E+01    54.22    0.00000E+00     0.00
   80.00    35.00       6.99 -999.99    6.99    0.00000     0.00  LINEAR    1.74264E+01    53.94    0.00000E+00     0.00
   85.00    35.00       7.11 -999.99    7.11    0.00000     0.00  LINEAR    1.76532E+01    53.78    0.00000E+00     0.00
   90.00    35.00       7.14 -999.99    7.14    0.00000     0.00  LINEAR    1.77272E+01    53.77    0.00000E+00     0.00
    0.00    40.00    -999.99 -999.99 -999.99    0.00000     0.00            0.00000E+00     0.00    0.00000E+00     0.00
    5.00    40.00     -23.12 -999.99  -23.12    0.00000     0.00  LINEAR    5.44098E-01    57.93    0.00000E+00     0.00
   10.00    40.00     -15.38 -999.99  -15.38    0.00000     0.00  LINEAR    1.32585E+00    59.72    0.00000E+00     0.00
   15.00    40.00     -10.41 -999.99  -10.41    0.00000     0.00  LINEAR    2.35001E+00    60.44    0.00000E+00     0.00
   20.00    40.00      -6.71 -999.99   -6.71    0.00000     0.00  LINEAR    3.59636E+00    60.52    0.00000E+00     0.00
   25.00    40.00      -3.81 -999.99   -3.81    0.00000     0.00  LINEAR    5.02423E+00    60.22    0.00000E+00     0.00
   30.00    40.00      -1.47 -999.99   -1.47    0.00000     0.00  LINEAR    6.57835E+00    59.69    0.00000E+00     0.00
   35.00    40.00       0.44 -999.99    0.44    0.00000     0.00  LINEAR    8.19566E+00    59.02    0.00000E+00     0.00
   40.00    40.00       2.01 -999.99    2.01    0.00000     0.00  LINEAR    9.81219E+00    58.28    0.00000E+00     0.00
   45.00    40.00       3.28 -999.99    3.28    0.00000     0.00  LINEAR    1.13691E+01    57.51    0.00000E+00     0.00
   50.00    40.00       4.33 -999.99    4.33    0.00000     0.00  LINEAR    1.28174E+01    56.75    0.00000E+00     0.00
   55.00    40.00       5.17 -999.99    5.17    0.00000     0.00  LINEAR    1.41201E+01    56.01    0.00000E+00     0.00
   60.00    40.00       5.84 -999.99    5.84    0.00000     0.00  LINEAR    1.52532E+01    55.33    0.00000E+00     0.00
   65.00    40.00       6.36 -999.99    6.36    0.00000     0.00  LINEAR    1.62044E+01    54.72    0.00000E+00     0.00
   70.00    40.00       6.76 -999.99    6.76    0.00000     0.00  LINEAR    1.69707E+01    54.20    0.00000E+00     0.00
   75.00    40.00       7.06 -999.99    7.06    0.00000     0.00  LINEAR    1.75555E+01    53.79    0.00000E+00     0.00
   80.00    40.00       7.26 -999.99    7.26    0.00000     0.00  LINEAR    1.79654E+01    53.50    0.00000E+00     0.00
   85.00    40.00       7.38 -999.99    7.38    0.00000     0.00  LINEAR    1.82074E+01    53.35    0.00000E+00     0.00
   90.00    40.00       7.41 -999.99    7.41    0.00000     0.00  LINEAR    1.82866E+01    53.33    0.00000E+00     0.00
    0.00    45.00    -999.99 -999.99 -999.99    0.00000     0.00            0.00000E+00     0.00    0.00000E+00     0.00
    5.00    45.00     -23.11 -999.99  -23.11    0.00000     0.00  LINEAR    5.44658E-01    57.93    0.00000E+00     0.00
   10.00    45.00     -15.36 -999.99  -15.36    0.00000     0.00  LINEAR    1.32864E+00    59.72    0.00000E+00     0.00
   15.00    45.00     -10.38 -999.99  -10.38    0.00000     0.00  LINEAR    2.35727E+00    60.42    0.00000E+00     0.00
   20.00    45.00      -6.68 -999.99   -6.68    0.00000     0.00  LINEAR    3.61065E+00    60.49    0.00000E+00     0.00
   25.00    45.00      -3.77 -999.99   -3.77    0.00000     0.00  LINEAR    5.04813E+00    60.17    0.00000E+00     0.00
   30.00    45.00      -1.42 -999.99   -1.42    0.00000     0.00  LINEAR    6.61427E+00    59.62    0.00000E+00     0.00
   35.00    45.00       0.49 -999.99    0.49    0.00000     0.00  LINEAR    8.24567E+00    58.94    0.00000E+00     0.00
   40.00    45.00       2.06 -999.99    2.06    0.00000     0.00  LINEAR    9.87791E+00    58.19    0.00000E+00     0.00
   45.00    45.00       3.35 -999.99    3.35    0.00000     0.00  LINEAR    1.14517E+01    57.41    0.00000E+00     0.00
   50.00    45.00       4.39 -999.99    4.39    0.00000     0.00  LINEAR    1.29173E+01    56.64    0.00000E+00     0.00
   55.00    45.00       5.24 -999.99    5.24    0.00000     0.00  LINEAR    1.42373E+01    55.89    0.00000E+00     0.00
   60.00    45.00       5.91 -999.99    5.91    0.00000     0.00  LINEAR    1.53871E+01    55.20    0.00000E+00     0.00
   65.00    45.00       6.44 -999.99    6.44    0.00000     0.00  LINEAR    1.63538E+01    54.59    0.00000E+00     0.00
   70.00    45.00       6.85 -999.99    6.85    0.00000     0.00  LINEAR    1.71337E+01    54.07    0.00000E+00     0.00
   75.00    45.00       7.14 -999.99    7.14    0.00000     0.00  LINEAR    1.77298E+01    53.65    0.00000E+00     0.00
   80.00    45.00       7.35 -999.99    7.35    0.00000     0.00  LINEAR    1.81482E+01    53.36    0.00000E+00     0.00
   85.00    45.00       7.46 -999.99    7.46    0.00000     0.00  LINEAR    1.83954E+01    53.20    0.00000E+00     0.00
   90.00    45.00       7.50 -999.99    7.50    0.00000     0.00  LINEAR    1.84764E+01    53.19    0.00000E+00     0.00
    0.00    50.00    -999.99 -999.99 -999.99    0.00000     0.00            0.00000E+00     0.00    0.00000E+00     0.00
    5.00    50.00     -23.12 -999.99  -23.12    0.00000     0.00  LINEAR    5.44098E-01    57.93    0.00000E+00     0.00
   10.00    50.00     -15.38 -999.99  -15.38    0.00000     0.00  LINEAR    1.32585E+00    59.72    0.00000E+00     0.00
   15.00    50.00     -10.41 -999.99  -10.41    0.00000     0.00  LINEAR    2.35001E+00    60.44    0.00000E+00     0.00
   20.00    50.00      -6.71 -999.99   -6.71    0.00000     0.00  LINEAR    3.59636E+00    60.52    0.00000E+00     0.00
   25.00    50.00      -3.81 -999.99   -3.81    0.00000     0.00  LINEAR    5.02423E+00    60.22    0.00000E+00     0.00
   30.00    50.00      -1.47 -999.99   -1.47    0.00000     0.00  LINEAR    6.57835E+00    59.69    0.00000E+00     0.00
   35.00    50.00       0.44 -999.99    0.44    0.00000     0.00  LINEAR    8.19566E+00    59.02    0.00000E+00     0.00
   40.00    50.00       2.01 -999.99    2.01    0.00000     0.00  LINEAR    9.81219E+00    58.28    0.00000E+00     0.00
   45.00    50.00       3.28 -999.99    3.28    0.00000     0.00  LINEAR    1.13691E+01    57.51    0.00000E+00     0.00
   50.00    50.00       4.33 -999.99    4.33    0.00000     0.00  LINEAR    1.28174E+01    56.75    0.00000E+00     0.00
   55.00    50.00       5.17 -999.99    5.17    0.00000     0.00  LINEAR    1.41201E+01    56.01    0.00000E+00     0.00
   60.00    50.00       5.84 -999.99    5.84    0.00000     0.00  LINEAR    1.52532E+01    55.33    0.00000E+00     0.00
   65.00    50.00       6.36 -999.99    6.36    0.00000     0.00  LINEAR    1.62044E+01    54.72    0.00000E+00     0.00
   70.00    50.00       6.76 -999.99    6.76    0.00000     0.00  LINEAR    1.69707E+01    54.20    0.00000E+00     0.00
   75.00    50.00       7.06 -999.99    7.06    0.00000     0.00  LINEAR    1.75555E+01    53.79    0.00000E+00     0.00
   80.00    50.00       7.26 -999.99    7.26    0.00000     0.00  LINEAR    1.79654E+01    53.50    0.00000E+00     0.00
   85.00    50.00       7.38 -999.99    7.38    0.00000     0.00  LINEAR    1.82074E+01    53.35    0.00000E+00     0.00
   90.00    50.00       7.41 -999.99    7.41    0.00000     0.00  LINEAR    1.82866E+01    53.33    0.00000E+00     0.00
    0.00    55.00    -999.99 -999.99 -999.99    0.00000     0.00            0.00000E+00     0.00    0.00000E+00     0.00
    5.00    55.00     -23.14 -999.99  -23.14    0.00000     0.00  LINEAR    5.42426E-01    57.91    0.00000E+00     0.00
   10.00    55.00     -15.43 -999.99  -15.43    0.00000     0.00  LINEAR    1.31754E+00    59.72    0.00000E+00     0.00
   15.00    55.00     -10.49 -999.99  -10.49    0.00000     0.00  LINEAR    2.32836E+00    60.48    0.00000E+00     0.00
   20.00    55.00      -6.82 -999.99   -6.82    0.00000     0.00  LINEAR    3.55378E+00    60.61    0.00000E+00     0.00
   25.00    55.00      -3.93 -999.99   -3.93    0.00000     0.00  LINEAR    4.95303E+00    60.36    0.00000E+00     0.00
   30.00    55.00      -1.61 -999.99   -1.61    0.00000     0.00  LINEAR    6.47140E+00    59.88    0.00000E+00     0.00
   35.00    55.00       0.28 -999.99    0.28    0.00000     0.00  LINEAR    8.04687E+00    59.25    0.00000E+00     0.00
   40.00    55.00       1.83 -999.99    1.83    0.00000     0.00  LINEAR    9.61683E+00    58.55    0.00000E+00     0.00
   45.00    55.00       3.10 -999.99    3.10    0.00000     0.00  LINEAR    1.11241E+01    57.82    0.00000E+00     0.00
   50.00    55.00       4.12 -999.99    4.12    0.00000     0.00  LINEAR    1.25211E+01    57.08    0.00000E+00     0.00
   55.00    55.00       4.95 -999.99    4.95    0.00000     0.00  LINEAR    1.37729E+01    56.37    0.00000E+00     0.00
   60.00    55.00       5.61 -999.99    5.61    0.00000     0.00  LINEAR    1.48570E+01    55.71    0.00000E+00     0.00
   65.00    55.00       6.12 -999.99    6.12    0.00000     0.00  LINEAR    1.57629E+01    55.12    0.00000E+00     0.00
   70.00    55.00       6.51 -999.99    6.51    0.00000     0.00  LINEAR    1.64892E+01    54.62    0.00000E+00     0.00
   75.00    55.00       6.80 -999.99    6.80    0.00000     0.00  LINEAR    1.70411E+01    54.22    0.00000E+00     0.00
   80.00    55.00       6.99 -999.99    6.99    0.00000     0.00  LINEAR    1.74264E+01    53.94    0.00000E+00     0.00
   85.00    55.00       7.11 -999.99    7.11    0.00000     0.00  LINEAR    1.76532E+01    53.78    0.00000E+00     0.00
   90.00    55.00       7.14 -999.99    7.14    0.00000     0.00  LINEAR    1.77272E+01    53.77    0.00000E+00     0.00
    0.00    60.00    -999.99 -999.99 -999.99    0.00000     0.00            0.00000E+00     0.00    0.00000E+00     0.00
    5.00    60.00     -23.19 -999.99  -23.19    0.00000     0.00  LINEAR    5.39665E-01    57.87    0.00000E+00     0.00
   10.00    60.00     -15.53 -999.99  -15.53    0.00000     0.00  LINEAR    1.30384E+00    59.72    0.00000E+00     0.00
   15.00    60.00     -10.62 -999.99  -10.62    0.00000     0.00  LINEAR    2.29270E+00    60.55    0.00000E+00     0.00
   20.00    60.00      -6.99 -999.99   -6.99    0.00000     0.00  LINEAR    3.48372E+00    60.77    0.00000E+00     0.00
   25.00    60.00      -4.14 -999.99   -4.14    0.00000     0.00  LINEAR    4.83601E+00    60.60    0.00000E+00     0.00
   30.00    60.00      -1.85 -999.99   -1.85    0.00000     0.00  LINEAR    6.29582E+00    60.20    0.00000E+00     0.00
   35.00    60.00       0.02 -999.99    0.02    0.00000     0.00  LINEAR    7.80292E+00    59.65    0.00000E+00     0.00
   40.00    60.00       1.54 -999.99    1.54    0.00000     0.00  LINEAR    9.29706E+00    59.01    0.00000E+00     0.00
   45.00    60.00       2.78 -999.99    2.78    0.00000     0.00  LINEAR    1.07237E+01    58.34    0.00000E+00     0.00
   50.00    60.00       3.78 -999.99    3.78    0.00000     0.00  LINEAR    1.20381E+01    57.66    0.00000E+00     0.00
   55.00    60.00       4.59 -999.99    4.59    0.00000     0.00  LINEAR    1.32081E+01    57.00    0.00000E+00     0.00
   60.00    60.00       5.22 -999.99    5.22    0.00000     0.00  LINEAR    1.42140E+01    56.38    0.00000E+00     0.00
   65.00    60.00       5.72 -999.99    5.72    0.00000     0.00  LINEAR    1.50480E+01    55.82    0.00000E+00     0.00
   70.00    60.00       6.09 -999.99    6.09    0.00000     0.00  LINEAR    1.57113E+01    55.34    0.00000E+00     0.00
   75.00    60.00       6.37 -999.99    6.37    0.00000     0.00  LINEAR    1.62114E+01    54.96    0.00000E+00     0.00
   80.00    60.00       6.55 -999.99    6.55    0.00000     0.00  LINEAR    1.65581E+01    54.69    0.00000E+00     0.00
   85.00    60.00       6.66 -999.99    6.66    0.00000     0.00  LINEAR    1.67610E+01    54.55    0.00000E+00     0.00
   90.00    60.00       6.69 -999.99    6.69    0.00000     0.00  LINEAR    1.68271E+01    54.53    0.00000E+00     0.00
    0.00    65.00    -999.99 -999.99 -999.99    0.00000     0.00            0.00000E+00     0.00    0.00000E+00     0.00
    5.00    65.00     -23.25 -999.99  -23.25    0.00000     0.00  LINEAR    5.35853E-01    57.82    0.00000E+00     0.00
   10.00    65.00     -15.65 -999.99  -15.65    0.00000     0.00  LINEAR    1.28497E+00    59.72    0.00000E+00     0.00
   15.00    65.00     -10.81 -999.99  -10.81    0.00000     0.00  LINEAR    2.24368E+00    60.65    0.00000E+00     0.00
   20.00    65.00      -7.23 -999.99   -7.23    0.00000     0.00  LINEAR    3.38755E+00    60.99    0.00000E+00     0.00
   25.00    65.00      -4.43 -999.99   -4.43    0.00000     0.00  LINEAR    4.67559E+00    60.94    0.00000E+00     0.00
   30.00    65.00      -2.19 -999.99   -2.19    0.00000     0.00  LINEAR    6.05551E+00    60.65    0.00000E+00     0.00
   35.00    65.00      -0.36 -999.99   -0.36    0.00000     0.00  LINEAR    7.46968E+00    60.21    0.00000E+00     0.00
   40.00    65.00       1.12 -999.99    1.12    0.00000     0.00  LINEAR    8.86127E+00    59.68    0.00000E+00     0.00
   45.00    65.00       2.32 -999.99    2.32    0.00000     0.00  LINEAR    1.01795E+01    59.10    0.00000E+00     0.00
   50.00    65.00       3.30 -999.99    3.30    0.00000     0.00  LINEAR    1.13836E+01    58.51    0.00000E+00     0.00
   55.00    65.00       4.07 -999.99    4.07    0.00000     0.00  LINEAR    1.24452E+01    57.92    0.00000E+00     0.00
   60.00    65.00       4.68 -999.99    4.68    0.00000     0.00  LINEAR    1.33484E+01    57.36    0.00000E+00     0.00
   65.00    65.00       5.15 -999.99    5.15    0.00000     0.00  LINEAR    1.40888E+01    56.86    0.00000E+00     0.00
   70.00    65.00       5.50 -999.99    5.50    0.00000     0.00  LINEAR    1.46706E+01    56.42    0.00000E+00     0.00
   75.00    65.00       5.75 -999.99    5.75    0.00000     0.00  LINEAR    1.51041E+01    56.08    0.00000E+00     0.00
   80.00    65.00       5.92 -999.99    5.92    0.00000     0.00  LINEAR    1.54015E+01    55.83    0.00000E+00     0.00
   85.00    65.00       6.02 -999.99    6.02    0.00000     0.00  LINEAR    1.55743E+01    55.70    0.00000E+00     0.00
   90.00    65.00       6.05 -999.99    6.05    0.00000     0.00  LINEAR    1.56302E+01    55.69    0.00000E+00     0.00
    0.00    70.00    -999.99 -999.99 -999.99    0.00000     0.00            0.00000E+00     0.00    0.00000E+00     0.00
    5.00    70.00     -23.33 -999.99  -23.33    0.00000     0.00  LINEAR    5.31042E-01    57.75    0.00000E+00     0.00
   10.00    70.00     -15.81 -999.99  -15.81    0.00000     0.00  LINEAR    1.26125E+00    59.71    0.00000E+00     0.00
   15.00    70.00     -11.05 -999.99  -11.05    0.00000     0.00  LINEAR    2.18217E+00    60.77    0.00000E+00     0.00
   20.00    70.00      -7.55 -999.99   -7.55    0.00000     0.00  LINEAR    3.26709E+00    61.26    0.00000E+00     0.00
   25.00    70.00      -4.81 -999.99   -4.81    0.00000     0.00  LINEAR    4.47503E+00    61.38    0.00000E+00     0.00
   30.00    70.00      -2.63 -999.99   -2.63    0.00000     0.00  LINEAR    5.75569E+00    61.25    0.00000E+00     0.00
   35.00    70.00      -0.86 -999.99   -0.86    0.00000     0.00  LINEAR    7.05497E+00    60.97    0.00000E+00     0.00
   40.00    70.00       0.57 -999.99    0.57    0.00000     0.00  LINEAR    8.32051E+00    60.58    0.00000E+00     0.00
   45.00    70.00       1.73 -999.99    1.73    0.00000     0.00  LINEAR    9.50653E+00    60.14    0.00000E+00     0.00
   50.00    70.00       2.66 -999.99    2.66    0.00000     0.00  LINEAR    1.05773E+01    59.66    0.00000E+00     0.00
   55.00    70.00       3.39 -999.99    3.39    0.00000     0.00  LINEAR    1.15093E+01    59.19    0.00000E+00     0.00
   60.00    70.00       3.96 -999.99    3.96    0.00000     0.00  LINEAR    1.22909E+01    58.73    0.00000E+00     0.00
   65.00    70.00       4.40 -999.99    4.40    0.00000     0.00  LINEAR    1.29216E+01    58.31    0.00000E+00     0.00
   70.00    70.00       4.72 -999.99    4.72    0.00000     0.00  LINEAR    1.34090E+01    57.94    0.00000E+00     0.00
   75.00    70.00       4.95 -999.99    4.95    0.00000     0.00  LINEAR    1.37661E+01    57.65    0.00000E+00     0.00
   80.00    70.00       5.10 -999.99    5.10    0.00000     0.00  LINEAR    1.40074E+01    57.45    0.00000E+00     0.00
   85.00    70.00       5.18 -999.99    5.18    0.00000     0.00  LINEAR    1.41458E+01    57.34    0.00000E+00     0.00
   90.00    70.00       5.21 -999.99    5.21    0.00000     0.00  LINEAR    1.41902E+01    57.34    0.00000E+00     0.00
    0.00    75.00    -999.99 -999.99 -999.99    0.00000     0.00            0.00000E+00     0.00    0.00000E+00     0.00
    5.00    75.00     -23.42 -999.99  -23.42    0.00000     0.00  LINEAR    5.25297E-01    57.66    0.00000E+00     0.00
   10.00    75.00     -16.01 -999.99  -16.01    0.00000     0.00  LINEAR    1.23306E+00    59.70    0.00000E+00     0.00
   15.00    75.00     -11.35 -999.99  -11.35    0.00000     0.00  LINEAR    2.10926E+00    60.91    0.00000E+00     0.00
   20.00    75.00      -7.93 -999.99   -7.93    0.00000     0.00  LINEAR    3.12462E+00    61.59    0.00000E+00     0.00
   25.00    75.00      -5.29 -999.99   -5.29    0.00000     0.00  LINEAR    4.23836E+00    61.92    0.00000E+00     0.00
   30.00    75.00      -3.18 -999.99   -3.18    0.00000     0.00  LINEAR    5.40277E+00    62.01    0.00000E+00     0.00
   35.00    75.00      -1.48 -999.99   -1.48    0.00000     0.00  LINEAR    6.56821E+00    61.94    0.00000E+00     0.00
   40.00    75.00      -0.11 -999.99   -0.11    0.00000     0.00  LINEAR    7.68798E+00    61.75    0.00000E+00     0.00
   45.00    75.00       0.98 -999.99    0.98    0.00000     0.00  LINEAR    8.72244E+00    61.50    0.00000E+00     0.00
   50.00    75.00       1.85 -999.99    1.85    0.00000     0.00  LINEAR    9.64203E+00    61.20    0.00000E+00     0.00
   55.00    75.00       2.53 -999.99    2.53    0.00000     0.00  LINEAR    1.04287E+01    60.89    0.00000E+00     0.00
   60.00    75.00       3.06 -999.99    3.06    0.00000     0.00  LINEAR    1.10758E+01    60.58    0.00000E+00     0.00
   65.00    75.00       3.45 -999.99    3.45    0.00000     0.00  LINEAR    1.15869E+01    60.29    0.00000E+00     0.00
   70.00    75.00       3.73 -999.99    3.73    0.00000     0.00  LINEAR    1.19727E+01    60.04    0.00000E+00     0.00
   75.00    75.00       3.93 -999.99    3.93    0.00000     0.00  LINEAR    1.22486E+01    59.83    0.00000E+00     0.00
   80.00    75.00       4.06 -999.99    4.06    0.00000     0.00  LINEAR    1.24308E+01    59.69    0.00000E+00     0.00
   85.00    75.00       4.13 -999.99    4.13    0.00000     0.00  LINEAR    1.25333E+01    59.62    0.00000E+00     0.00
   90.00    75.00       4.15 -999.99    4.15    0.00000     0.00  LINEAR    1.25657E+01    59.64    0.00000E+00     0.00
    0.00    80.00    -999.99 -999.99 -999.99    0.00000     0.00            0.00000E+00     0.00    0.00000E+00     0.00
    5.00    80.00     -23.53 -999.99  -23.53    0.00000     0.00  LINEAR    5.18697E-01    57.56    0.00000E+00     0.00
   10.00    80.00     -16.24 -999.99  -16.24    0.00000     0.00  LINEAR    1.20084E+00    59.66    0.00000E+00     0.00
   15.00    80.00     -11.70 -999.99  -11.70    0.00000     0.00  LINEAR    2.02623E+00    61.06    0.00000E+00     0.00
   20.00    80.00      -8.40 -999.99   -8.40    0.00000     0.00  LINEAR    2.96281E+00    61.98    0.00000E+00     0.00
   25.00    80.00      -5.85 -999.99   -5.85    0.00000     0.00  LINEAR    3.97024E+00    62.58    0.00000E+00     0.00
   30.00    80.00      -3.84 -999.99   -3.84    0.00000     0.00  LINEAR    5.00409E+00    62.94    0.00000E+00     0.00
   35.00    80.00      -2.24 -999.99   -2.24    0.00000     0.00  LINEAR    6.02014E+00    63.15    0.00000E+00     0.00
   40.00    80.00      -0.95 -999.99   -0.95    0.00000     0.00  LINEAR    6.97848E+00    63.25    0.00000E+00     0.00
   45.00    80.00       0.06 -999.99    0.06    0.00000     0.00  LINEAR    7.84676E+00    63.27    0.00000E+00     0.00
   50.00    80.00       0.86 -999.99    0.86    0.00000     0.00  LINEAR    8.60251E+00    63.23    0.00000E+00     0.00
   55.00    80.00       1.48 -999.99    1.48    0.00000     0.00  LINEAR    9.23395E+00    63.17    0.00000E+00     0.00
   60.00    80.00       1.94 -999.99    1.94    0.00000     0.00  LINEAR    9.73964E+00    63.08    0.00000E+00     0.00
   65.00    80.00       2.28 -999.99    2.28    0.00000     0.00  LINEAR    1.01269E+01    62.99    0.00000E+00     0.00
   70.00    80.00       2.52 -999.99    2.52    0.00000     0.00  LINEAR    1.04093E+01    62.91    0.00000E+00     0.00
   75.00    80.00       2.68 -999.99    2.68    0.00000     0.00  LINEAR    1.06038E+01    62.85    0.00000E+00     0.00
   80.00    80.00       2.78 -999.99    2.78    0.00000     0.00  LINEAR    1.07275E+01    62.82    0.00000E+00     0.00
   85.00    80.00       2.83 -999.99    2.83    0.00000     0.00  LINEAR    1.07948E+01    62.81    0.00000E+00     0.00
   90.00    80.00       2.85 -999.99    2.85    0.00000     0.00  LINEAR    1.08156E+01    62.85    0.00000E+00     0.00
    0.00    85.00    -999.99 -999.99 -999.99    0.00000     0.00            0.00000E+00     0.00    0.00000E+00     0.00
    5.00    85.00     -23.66 -999.99  -23.66    0.00000     0.00  LINEAR    5.11328E-01    57.43    0.00000E+00     0.00
   10.00    85.00     -16.50 -999.99  -16.50    0.00000     0.00  LINEAR    1.16511E+00    59.61    0.00000E+00     0.00
   15.00    85.00     -12.10 -999.99  -12.10    0.00000     0.00  LINEAR    1.93453E+00    61.21    0.00000E+00     0.00
   20.00    85.00      -8.93 -999.99   -8.93    0.00000     0.00  LINEAR    2.78464E+00    62.41    0.00000E+00     0.00
   25.00    85.00      -6.52 -999.99   -6.52    0.00000     0.00  LINEAR    3.67588E+00    63.34    0.00000E+00     0.00
   30.00    85.00      -4.64 -999.99   -4.64    0.00000     0.00  LINEAR    4.56777E+00    64.08    0.00000E+00     0.00
   35.00    85.00      -3.15 -999.99   -3.15    0.00000     0.00  LINEAR    5.42252E+00    64.68    0.00000E+00     0.00
   40.00    85.00      -1.97 -999.99   -1.97    0.00000     0.00  LINEAR    6.20807E+00    65.17    0.00000E+00     0.00
   45.00    85.00      -1.05 -999.99   -1.05    0.00000     0.00  LINEAR    6.90046E+00    65.58    0.00000E+00     0.00
   50.00    85.00      -0.35 -999.99   -0.35    0.00000     0.00  LINEAR    7.48510E+00    65.93    0.00000E+00     0.00
   55.00    85.00       0.19 -999.99    0.19    0.00000     0.00  LINEAR    7.95704E+00    66.24    0.00000E+00     0.00
   60.00    85.00       0.57 -999.99    0.57    0.00000     0.00  LINEAR    8.32004E+00    66.51    0.00000E+00     0.00
   65.00    85.00       0.85 -999.99    0.85    0.00000     0.00  LINEAR    8.58491E+00    66.75    0.00000E+00     0.00
   70.00    85.00       1.03 -999.99    1.03    0.00000     0.00  LINEAR    8.76717E+00    66.95    0.00000E+00     0.00
   75.00    85.00       1.14 -999.99    1.14    0.00000     0.00  LINEAR    8.88438E+00    67.13    0.00000E+00     0.00
   80.00    85.00       1.21 -999.99    1.21    0.00000     0.00  LINEAR    8.95349E+00    67.27    0.00000E+00     0.00
   85.00    85.00       1.24 -999.99    1.24    0.00000     0.00  LINEAR    8.98852E+00    67.38    0.00000E+00     0.00
   90.00    85.00       1.25 -999.99    1.25    0.00000     0.00  LINEAR    8.99867E+00    67.45    0.00000E+00     0.00
    0.00    90.00    -999.99 -999.99 -999.99    0.00000     0.00            0.00000E+00     0.00    0.00000E+00     0.00
    5.00    90.00     -23.79 -999.99  -23.79    0.00000     0.00  LINEAR    5.03288E-01    57.28    0.00000E+00     0.00
   10.00    90.00     -16.80 -999.99  -16.80    0.00000     0.00  LINEAR    1.12644E+00    59.53    0.00000E+00     0.00
   15.00    90.00     -12.55 -999.99  -12.55    0.00000     0.00  LINEAR    1.83573E+00    61.35    0.00000E+00     0.00
   20.00    90.00      -9.55 -999.99   -9.55    0.00000     0.00  LINEAR    2.59334E+00    62.89    0.00000E+00     0.00
   25.00    90.00      -7.30 -999.99   -7.30    0.00000     0.00  LINEAR    3.36087E+00    64.24    0.00000E+00     0.00
   30.00    90.00      -5.57 -999.99   -5.57    0.00000     0.00  LINEAR    4.10254E+00    65.46    0.00000E+00     0.00
   35.00    90.00      -4.23 -999.99   -4.23    0.00000     0.00  LINEAR    4.78792E+00    66.59    0.00000E+00     0.00
   40.00    90.00      -3.19 -999.99   -3.19    0.00000     0.00  LINEAR    5.39394E+00    67.65    0.00000E+00     0.00
   45.00    90.00      -2.40 -999.99   -2.40    0.00000     0.00  LINEAR    5.90599E+00    68.66    0.00000E+00     0.00
   50.00    90.00      -1.82 -999.99   -1.82    0.00000     0.00  LINEAR    6.31815E+00    69.62    0.00000E+00     0.00
   55.00    90.00      -1.40 -999.99   -1.40    0.00000     0.00  LINEAR    6.63258E+00    70.53    0.00000E+00     0.00
   60.00    90.00      -1.11 -999.99   -1.11    0.00000     0.00  LINEAR    6.85807E+00    71.39    0.00000E+00     0.00
   65.00    90.00      -0.92 -999.99   -0.92    0.00000     0.00  LINEAR    7.00829E+00    72.18    0.00000E+00     0.00
   70.00    90.00      -0.80 -999.99   -0.80    0.00000     0.00  LINEAR    7.09956E+00    72.88    0.00000E+00     0.00
   75.00    90.00      -0.75 -999.99   -0.75    0.00000     0.00  LINEAR    7.14874E+00    73.47    0.00000E+00     0.00
   80.00    90.00      -0.72 -999.99   -0.72    0.00000     0.00  LINEAR    7.17122E+00    73.93    0.00000E+00     0.00
   85.00    90.00      -0.71 -999.99   -0.71    0.00000     0.00  LINEAR    7.17923E+00    74.24    0.00000E+00     0.00
   90.00    90.00      -0.71 -999.99   -0.71    0.00000     0.00  LINEAR    7.18062E+00    74.38    0.00000E+00     0.00
    0.00    95.00    -999.99 -999.99 -999.99    0.00000     0.00            0.00000E+00     0.00    0.00000E+00     0.00
    5.00    95.00     -23.94 -999.99  -23.94    0.00000     0.00  LINEAR    4.94679E-01    57.11    0.00000E+00     0.00
   10.00    95.00     -17.12 -999.99  -17.12    0.00000     0.00  LINEAR    1.08542E+00    59.41    0.00000E+00     0.00
   15.00    95.00     -13.06 -999.99  -13.06    0.00000     0.00  LINEAR    1.73150E+00    61.46    0.00000E+00     0.00
   20.00    95.00     -10.25 -999.99  -10.25    0.00000     0.00  LINEAR    2.39233E+00    63.39    0.00000E+00     0.00
   25.00    95.00      -8.20 -999.99   -8.20    0.00000     0.00  LINEAR    3.03110E+00    65.26    0.00000E+00     0.00
   30.00    95.00      -6.66 -999.99   -6.66    0.00000     0.00  LINEAR    3.61753E+00    67.13    0.00000E+00     0.00
   35.00    95.00      -5.51 -999.99   -5.51    0.00000     0.00  LINEAR    4.12968E+00    69.02    0.00000E+00     0.00
   40.00    95.00      -4.66 -999.99   -4.66    0.00000     0.00  LINEAR    4.55468E+00    70.94    0.00000E+00     0.00
   45.00    95.00      -4.05 -999.99   -4.05    0.00000     0.00  LINEAR    4.88845E+00    72.90    0.00000E+00     0.00
   50.00    95.00      -3.62 -999.99   -3.62    0.00000     0.00  LINEAR    5.13458E+00    74.87    0.00000E+00     0.00
   55.00    95.00      -3.34 -999.99   -3.34    0.00000     0.00  LINEAR    5.30260E+00    76.84    0.00000E+00     0.00
   60.00    95.00      -3.17 -999.99   -3.17    0.00000     0.00  LINEAR    5.40598E+00    78.75    0.00000E+00     0.00
   65.00    95.00      -3.09 -999.99   -3.09    0.00000     0.00  LINEAR    5.46006E+00    80.56    0.00000E+00     0.00
   70.00    95.00      -3.05 -999.99   -3.05    0.00000     0.00  LINEAR    5.48018E+00    82.19    0.00000E+00     0.00
   75.00    95.00      -3.05 -999.99   -3.05    0.00000     0.00  LINEAR    5.48028E+00    83.58    0.00000E+00     0.00
   80.00    95.00      -3.07 -999.99   -3.07    0.00000     0.00  LINEAR    5.47180E+00    84.65    0.00000E+00     0.00
   85.00    95.00      -3.08 -999.99   -3.08    0.00000     0.00  LINEAR    5.46316E+00    85.34    0.00000E+00     0.00
   90.00    95.00      -3.09 -999.99   -3.09    0.00000     0.00  LINEAR    5.45945E+00    85.61    0.00000E+00     0.00
    0.00   100.00    -999.99 -999.99 -999.99    0.00000     0.00            0.00000E+00     0.00    0.00000E+00     0.00
    5.00   100.00     -24.10 -999.99  -24.10    0.00000     0.00  LINEAR    4.85612E-01    56.91    0.00000E+00     0.00
   10.00   100.00     -17.47 -999.99  -17.47    0.00000     0.00  LINEAR    1.04268E+00    59.24    0.00000E+00     0.00
   15.00   100.00     -13.62 -999.99  -13.62    0.00000     0.00  LINEAR    1.62357E+00    61.53    0.00000E+00     0.00
   20.00   100.00     -11.04 -999.99  -11.04    0.00000     0.00  LINEAR    2.18513E+00    63.90    0.00000E+00     0.00
   25.00   100.00      -9.23 -999.99   -9.23    0.00000     0.00  LINEAR    2.69263E+00    66.44    0.00000E+00     0.00
   30.00   100.00      -7.94 -999.99   -7.94    0.00000     0.00  LINEAR    3.12227E+00    69.19    0.00000E+00     0.00
   35.00   100.00      -7.04 -999.99   -7.04    0.00000     0.00  LINEAR    3.46210E+00    72.21    0.00000E+00     0.00
   40.00   100.00      -6.44 -999.99   -6.44    0.00000     0.00  LINEAR    3.71145E+00    75.51    0.00000E+00     0.00
   45.00   100.00      -6.06 -999.99   -6.06    0.00000     0.00  LINEAR    3.87890E+00    79.10    0.00000E+00     0.00
   50.00   100.00      -5.83 -999.99   -5.83    0.00000     0.00  LINEAR    3.97939E+00    82.92    0.00000E+00     0.00
   55.00   100.00      -5.72 -999.99   -5.72    0.00000     0.00  LINEAR    4.03081E+00    86.89    0.00000E+00     0.00
   60.00   100.00      -5.68 -999.99   -5.68    0.00000     0.00  LINEAR    4.05072E+00    90.88    0.00000E+00     0.00
   65.00   100.00      -5.67 -999.99   -5.67    0.00000     0.00  LINEAR    4.05379E+00    94.71    0.00000E+00     0.00
   70.00   100.00      -5.68 -999.99   -5.68    0.00000     0.00  LINEAR    4.05033E+00    98.19    0.00000E+00     0.00
   75.00   100.00      -5.69 -999.99   -5.69    0.00000     0.00  LINEAR    4.04615E+00   101.13    0.00000E+00     0.00
   80.00   100.00      -5.69 -999.99   -5.69    0.00000     0.00  LINEAR    4.04344E+00   103.38    0.00000E+00     0.00
   85.00   100.00      -5.70 -999.99   -5.70    0.00000     0.00  LINEAR    4.04222E+00   104.79    0.00000E+00     0.00
   90.00   100.00      -5.70 -999.99   -5.70    0.00000     0.00  LINEAR    4.04182E+00   105.31    0.00000E+00     0.00
    0.00   105.00    -999.99 -999.99 -999.99    0.00000     0.00            0.00000E+00     0.00    0.00000E+00     0.00
    5.00   105.00     -24.27 -999.99  -24.27    0.00000     0.00  LINEAR    4.76197E-01    56.68    0.00000E+00     0.00
   10.00   105.00     -17.84 -999.99  -17.84    0.00000     0.00  LINEAR    9.98856E-01    59.01    0.00000E+00     0.00
   15.00   105.00     -14.23 -999.99  -14.23    0.00000     0.00  LINEAR    1.51372E+00    61.54    0.00000E+00     0.00
   20.00   105.00     -11.92 -999.99  -11.92    0.00000     0.00  LINEAR    1.97531E+00    64.41    0.00000E+00     0.00
   25.00   105.00     -10.40 -999.99  -10.40    0.00000     0.00  LINEAR    2.35157E+00    67.77    0.00000E+00     0.00
   30.00   105.00      -9.44 -999.99   -9.44    0.00000     0.00  LINEAR    2.62653E+00    71.77    0.00000E+00     0.00
   35.00   105.00      -8.88 -999.99   -8.88    0.00000     0.00  LINEAR    2.80100E+00    76.57    0.00000E+00     0.00
   40.00   105.00      -8.61 -999.99   -8.61    0.00000     0.00  LINEAR    2.89094E+00    82.28    0.00000E+00     0.00
   45.00   105.00      -8.51 -999.99   -8.51    0.00000     0.00  LINEAR    2.92361E+00    88.94    0.00000E+00     0.00
   50.00   105.00      -8.49 -999.99   -8.49    0.00000     0.00  LINEAR    2.93146E+00    96.44    0.00000E+00     0.00
   55.00   105.00      -8.45 -999.99   -8.45    0.00000     0.00  LINEAR    2.94431E+00   104.44    0.00000E+00     0.00
   60.00   105.00      -8.34 -999.99   -8.34    0.00000     0.00  LINEAR    2.98159E+00   112.42    0.00000E+00     0.00
   65.00   105.00      -8.15 -999.99   -8.15    0.00000     0.00  LINEAR    3.04820E+00   119.80    0.00000E+00     0.00
   70.00   105.00      -7.90 -999.99   -7.90    0.00000     0.00  LINEAR    3.13584E+00   126.12    0.00000E+00     0.00
   75.00   105.00      -7.65 -999.99   -7.65    0.00000     0.00  LINEAR    3.22864E+00   131.09    0.00000E+00     0.00
   80.00   105.00      -7.43 -999.99   -7.43    0.00000     0.00  LINEAR    3.30940E+00   134.65    0.00000E+00     0.00
   85.00   105.00      -7.29 -999.99   -7.29    0.00000     0.00  LINEAR    3.36389E+00   136.78    0.00000E+00     0.00
   90.00   105.00      -7.24 -999.99   -7.24    0.00000     0.00  LINEAR    3.38312E+00   137.52    0.00000E+00     0.00
    0.00   110.00    -999.99 -999.99 -999.99    0.00000     0.00            0.00000E+00     0.00    0.00000E+00     0.00
    5.00   110.00     -24.45 -999.99  -24.45    0.00000     0.00  LINEAR    4.66549E-01    56.42    0.00000E+00     0.00
   10.00   110.00     -18.23 -999.99  -18.23    0.00000     0.00  LINEAR    9.54590E-01    58.72    0.00000E+00     0.00
   15.00   110.00     -14.88 -999.99  -14.88    0.00000     0.00  LINEAR    1.40371E+00    61.45    0.00000E+00     0.00
   20.00   110.00     -12.89 -999.99  -12.89    0.00000     0.00  LINEAR    1.76641E+00    64.86    0.00000E+00     0.00
   25.00   110.00     -11.75 -999.99  -11.75    0.00000     0.00  LINEAR    2.01394E+00    69.28    0.00000E+00     0.00
   30.00   110.00     -11.22 -999.99  -11.22    0.00000     0.00  LINEAR    2.14044E+00    75.12    0.00000E+00     0.00
   35.00   110.00     -11.12 -999.99  -11.12    0.00000     0.00  LINEAR    2.16543E+00    82.92    0.00000E+00     0.00
   40.00   110.00     -11.25 -999.99  -11.25    0.00000     0.00  LINEAR    2.13395E+00    93.22    0.00000E+00     0.00
   45.00   110.00     -11.34 -999.99  -11.34    0.00000     0.00  LINEAR    2.11115E+00   106.08    0.00000E+00     0.00
   50.00   110.00     -11.13 -999.99  -11.13    0.00000     0.00  LINEAR    2.16303E+00   120.52    0.00000E+00     0.00
   55.00   110.00     -10.50 -999.99  -10.50    0.00000     0.00  LINEAR    2.32463E+00   134.49    0.00000E+00     0.00
   60.00   110.00      -9.59 -999.99   -9.59    0.00000     0.00  LINEAR    2.58289E+00   146.23    0.00000E+00     0.00
   65.00   110.00      -8.60 -999.99   -8.60    0.00000     0.00  LINEAR    2.89366E+00   155.15    0.00000E+00     0.00
   70.00   110.00      -7.70 -999.99   -7.70    0.00000     0.00  LINEAR    3.20836E+00   161.54    0.00000E+00     0.00
   75.00   110.00      -6.98 -999.99   -6.98    0.00000     0.00  LINEAR    3.48773E+00   165.93    0.00000E+00     0.00
   80.00   110.00      -6.46 -999.99   -6.46    0.00000     0.00  LINEAR    3.70424E+00   168.77    0.00000E+00     0.00
   85.00   110.00      -6.14 -999.99   -6.14    0.00000     0.00  LINEAR    3.84046E+00   170.37    0.00000E+00     0.00
   90.00   110.00      -6.04 -999.99   -6.04    0.00000     0.00  LINEAR    3.88692E+00   170.92    0.00000E+00     0.00
    0.00   115.00    -999.99 -999.99 -999.99    0.00000     0.00            0.00000E+00     0.00    0.00000E+00     0.00
    5.00   115.00     -24.64 -999.99  -24.64    0.00000     0.00  LINEAR    4.56777E-01    56.13    0.00000E+00     0.00
   10.00   115.00     -18.64 -999.99  -18.64    0.00000     0.00  LINEAR    9.10515E-01    58.34    0.00000E+00     0.00
   15.00   115.00     -15.58 -999.99  -15.58    0.00000     0.00  LINEAR    1.29529E+00    61.23    0.00000E+00     0.00
   20.00   115.00     -13.96 -999.99  -13.96    0.00000     0.00  LINEAR    1.56186E+00    65.22    0.00000E+00     0.00
   25.00   115.00     -13.29 -999.99  -13.29    0.00000     0.00  LINEAR    1.68557E+00    70.99    0.00000E+00     0.00
   30.00   115.00     -13.35 -999.99  -13.35    0.00000     0.00  LINEAR    1.67470E+00    79.69    0.00000E+00     0.00
   35.00   115.00     -13.84 -999.99  -13.84    0.00000     0.00  LINEAR    1.58241E+00    93.07    0.00000E+00     0.00
   40.00   115.00     -14.19 -999.99  -14.19    0.00000     0.00  LINEAR    1.52049E+00   112.59    0.00000E+00     0.00
   45.00   115.00     -13.57 -999.99  -13.57    0.00000     0.00  LINEAR    1.63246E+00   135.68    0.00000E+00     0.00
   50.00   115.00     -11.91 -999.99  -11.91    0.00000     0.00  LINEAR    1.97776E+00   155.57    0.00000E+00     0.00
   55.00   115.00      -9.91 -999.99   -9.91    0.00000     0.00  LINEAR    2.48982E+00   169.24    0.00000E+00     0.00
   60.00   115.00      -8.08 -999.99   -8.08    0.00000     0.00  LINEAR    3.07139E+00   177.97    0.00000E+00     0.00
   65.00   115.00      -6.59 -999.99   -6.59    0.00000     0.00  LINEAR    3.64801E+00  -176.44    0.00000E+00     0.00
   70.00   115.00      -5.43 -999.99   -5.43    0.00000     0.00  LINEAR    4.16917E+00  -172.80    0.00000E+00     0.00
   75.00   115.00      -4.57 -999.99   -4.57    0.00000     0.00  LINEAR    4.60129E+00  -170.43    0.00000E+00     0.00
   80.00   115.00      -3.99 -999.99   -3.99    0.00000     0.00  LINEAR    4.92265E+00  -168.93    0.00000E+00     0.00
   85.00   115.00      -3.64 -999.99   -3.64    0.00000     0.00  LINEAR    5.12008E+00  -168.09    0.00000E+00     0.00
   90.00   115.00      -3.53 -999.99   -3.53    0.00000     0.00  LINEAR    5.18659E+00  -167.79    0.00000E+00     0.00
    0.00   120.00    -999.99 -999.99 -999.99    0.00000     0.00            0.00000E+00     0.00    0.00000E+00     0.00
    5.00   120.00     -24.82 -999.99  -24.82    0.00000     0.00  LINEAR    4.46993E-01    55.81    0.00000E+00     0.00
   10.00   120.00     -19.07 -999.99  -19.07    0.00000     0.00  LINEAR    8.67241E-01    57.86    0.00000E+00     0.00
   15.00   120.00     -16.32 -999.99  -16.32    0.00000     0.00  LINEAR    1.19013E+00    60.83    0.00000E+00     0.00
   20.00   120.00     -15.13 -999.99  -15.13    0.00000     0.00  LINEAR    1.36496E+00    65.40    0.00000E+00     0.00
   25.00   120.00     -15.08 -999.99  -15.08    0.00000     0.00  LINEAR    1.37196E+00    72.92    0.00000E+00     0.00
   30.00   120.00     -15.95 -999.99  -15.95    0.00000     0.00  LINEAR    1.24143E+00    86.40    0.00000E+00     0.00
   35.00   120.00     -16.99 -999.99  -16.99    0.00000     0.00  LINEAR    1.10184E+00   111.05    0.00000E+00     0.00
   40.00   120.00     -16.14 -999.99  -16.14    0.00000     0.00  LINEAR    1.21440E+00   144.93    0.00000E+00     0.00
   45.00   120.00     -13.20 -999.99  -13.20    0.00000     0.00  LINEAR    1.70410E+00   170.68    0.00000E+00     0.00
   50.00   120.00     -10.13 -999.99  -10.13    0.00000     0.00  LINEAR    2.42764E+00  -175.19    0.00000E+00     0.00
   55.00   120.00      -7.61 -999.99   -7.61    0.00000     0.00  LINEAR    3.24318E+00  -167.42    0.00000E+00     0.00
   60.00   120.00      -5.65 -999.99   -5.65    0.00000     0.00  LINEAR    4.06318E+00  -162.83    0.00000E+00     0.00
   65.00   120.00      -4.15 -999.99   -4.15    0.00000     0.00  LINEAR    4.82897E+00  -159.95    0.00000E+00     0.00
   70.00   120.00      -3.02 -999.99   -3.02    0.00000     0.00  LINEAR    5.49897E+00  -158.08    0.00000E+00     0.00
   75.00   120.00      -2.20 -999.99   -2.20    0.00000     0.00  LINEAR    6.04404E+00  -156.86    0.00000E+00     0.00
   80.00   120.00      -1.65 -999.99   -1.65    0.00000     0.00  LINEAR    6.44480E+00  -156.07    0.00000E+00     0.00
   85.00   120.00      -1.32 -999.99   -1.32    0.00000     0.00  LINEAR    6.68934E+00  -155.62    0.00000E+00     0.00
   90.00   120.00      -1.22 -999.99   -1.22    0.00000     0.00  LINEAR    6.77138E+00  -155.44    0.00000E+00     0.00
    0.00   125.00    -999.99 -999.99 -999.99    0.00000     0.00            0.00000E+00     0.00    0.00000E+00     0.00
    5.00   125.00     -25.01 -999.99  -25.01    0.00000     0.00  LINEAR    4.37299E-01    55.46    0.00000E+00     0.00
   10.00   125.00     -19.50 -999.99  -19.50    0.00000     0.00  LINEAR    8.25342E-01    57.27    0.00000E+00     0.00
   15.00   125.00     -17.08 -999.99  -17.08    0.00000     0.00  LINEAR    1.08984E+00    60.20    0.00000E+00     0.00
   20.00   125.00     -16.40 -999.99  -16.40    0.00000     0.00  LINEAR    1.17881E+00    65.27    0.00000E+00     0.00
   25.00   125.00     -17.18 -999.99  -17.18    0.00000     0.00  LINEAR    1.07805E+00    75.09    0.00000E+00     0.00
   30.00   125.00     -19.17 -999.99  -19.17    0.00000     0.00  LINEAR    8.57129E-01    97.43    0.00000E+00     0.00
   35.00   125.00     -19.45 -999.99  -19.45    0.00000     0.00  LINEAR    8.29358E-01   142.59    0.00000E+00     0.00
   40.00   125.00     -15.29 -999.99  -15.29    0.00000     0.00  LINEAR    1.33914E+00   178.85    0.00000E+00     0.00
   45.00   125.00     -11.05 -999.99  -11.05    0.00000     0.00  LINEAR    2.18282E+00  -165.48    0.00000E+00     0.00
[...]
   40.00   315.00     -11.22 -999.99  -11.22    0.00000     0.00  LINEAR    2.14001E+00  -147.40    0.00000E+00     0.00
   45.00   315.00      -7.34 -999.99   -7.34    0.00000     0.00  LINEAR    3.34643E+00  -143.45    0.00000E+00     0.00
   50.00   315.00      -4.50 -999.99   -4.50    0.00000     0.00  LINEAR    4.63892E+00  -141.40    0.00000E+00     0.00
   55.00   315.00      -2.35 -999.99   -2.35    0.00000     0.00  LINEAR    5.94485E+00  -140.18    0.00000E+00     0.00
   60.00   315.00      -0.68 -999.99   -0.68    0.00000     0.00  LINEAR    7.19833E+00  -139.39    0.00000E+00     0.00
   65.00   315.00       0.60 -999.99    0.60    0.00000     0.00  LINEAR    8.34273E+00  -138.85    0.00000E+00     0.00
   70.00   315.00       1.57 -999.99    1.57    0.00000     0.00  LINEAR    9.33236E+00  -138.46    0.00000E+00     0.00
   75.00   315.00       2.28 -999.99    2.28    0.00000     0.00  LINEAR    1.01327E+01  -138.19    0.00000E+00     0.00
   80.00   315.00       2.77 -999.99    2.77    0.00000     0.00  LINEAR    1.07194E+01  -138.00    0.00000E+00     0.00
   85.00   315.00       3.06 -999.99    3.06    0.00000     0.00  LINEAR    1.10769E+01  -137.87    0.00000E+00     0.00
   90.00   315.00       3.15 -999.99    3.15    0.00000     0.00  LINEAR    1.11965E+01  -137.79    0.00000E+00     0.00
    0.00   320.00    -999.99 -999.99 -999.99    0.00000     0.00            0.00000E+00     0.00    0.00000E+00     0.00
    5.00   320.00     -25.20 -999.99  -25.20    0.00000     0.00  LINEAR    4.27794E-01    55.07    0.00000E+00     0.00
   10.00   320.00     -19.93 -999.99  -19.93    0.00000     0.00  LINEAR    7.85351E-01    56.56    0.00000E+00     0.00
   15.00   320.00     -17.87 -999.99  -17.87    0.00000     0.00  LINEAR    9.95911E-01    59.29    0.00000E+00     0.00
   20.00   320.00     -17.77 -999.99  -17.77    0.00000     0.00  LINEAR    1.00634E+00    64.67    0.00000E+00     0.00
   25.00   320.00     -19.68 -999.99  -19.68    0.00000     0.00  LINEAR    8.08107E-01    77.49    0.00000E+00     0.00
   30.00   320.00     -22.97 -999.99  -22.97    0.00000     0.00  LINEAR    5.53631E-01   118.28    0.00000E+00     0.00
   35.00   320.00     -19.06 -999.99  -19.06    0.00000     0.00  LINEAR    8.67673E-01   178.86    0.00000E+00     0.00
   40.00   320.00     -13.13 -999.99  -13.13    0.00000     0.00  LINEAR    1.71702E+00  -159.74    0.00000E+00     0.00
   45.00   320.00      -8.95 -999.99   -8.95    0.00000     0.00  LINEAR    2.77952E+00  -151.89    0.00000E+00     0.00
   50.00   320.00      -5.92 -999.99   -5.92    0.00000     0.00  LINEAR    3.93995E+00  -148.07    0.00000E+00     0.00
   55.00   320.00      -3.64 -999.99   -3.64    0.00000     0.00  LINEAR    5.12129E+00  -145.89    0.00000E+00     0.00
   60.00   320.00      -1.90 -999.99   -1.90    0.00000     0.00  LINEAR    6.25886E+00  -144.53    0.00000E+00     0.00
   65.00   320.00      -0.56 -999.99   -0.56    0.00000     0.00  LINEAR    7.29868E+00  -143.63    0.00000E+00     0.00
   70.00   320.00       0.44 -999.99    0.44    0.00000     0.00  LINEAR    8.19795E+00  -143.01    0.00000E+00     0.00
   75.00   320.00       1.18 -999.99    1.18    0.00000     0.00  LINEAR    8.92487E+00  -142.59    0.00000E+00     0.00
   80.00   320.00       1.69 -999.99    1.69    0.00000     0.00  LINEAR    9.45744E+00  -142.31    0.00000E+00     0.00
   85.00   320.00       1.98 -999.99    1.98    0.00000     0.00  LINEAR    9.78175E+00  -142.13    0.00000E+00     0.00
   90.00   320.00       2.07 -999.99    2.07    0.00000     0.00  LINEAR    9.89029E+00  -142.04    0.00000E+00     0.00
    0.00   325.00    -999.99 -999.99 -999.99    0.00000     0.00            0.00000E+00     0.00    0.00000E+00     0.00
    5.00   325.00     -25.01 -999.99  -25.01    0.00000     0.00  LINEAR    4.37299E-01    55.46    0.00000E+00     0.00
   10.00   325.00     -19.50 -999.99  -19.50    0.00000     0.00  LINEAR    8.25342E-01    57.27    0.00000E+00     0.00
   15.00   325.00     -17.08 -999.99  -17.08    0.00000     0.00  LINEAR    1.08984E+00    60.20    0.00000E+00     0.00
   20.00   325.00     -16.40 -999.99  -16.40    0.00000     0.00  LINEAR    1.17881E+00    65.27    0.00000E+00     0.00
   25.00   325.00     -17.18 -999.99  -17.18    0.00000     0.00  LINEAR    1.07805E+00    75.09    0.00000E+00     0.00
   30.00   325.00     -19.17 -999.99  -19.17    0.00000     0.00  LINEAR    8.57129E-01    97.43    0.00000E+00     0.00
   35.00   325.00     -19.45 -999.99  -19.45    0.00000     0.00  LINEAR    8.29358E-01   142.59    0.00000E+00     0.00
   40.00   325.00     -15.29 -999.99  -15.29    0.00000     0.00  LINEAR    1.33914E+00   178.85    0.00000E+00     0.00
   45.00   325.00     -11.05 -999.99  -11.05    0.00000     0.00  LINEAR    2.18282E+00  -165.48    0.00000E+00     0.00
   50.00   325.00      -7.82 -999.99   -7.82    0.00000     0.00  LINEAR    3.16565E+00  -158.14    0.00000E+00     0.00
   55.00   325.00      -5.39 -999.99   -5.39    0.00000     0.00  LINEAR    4.18885E+00  -154.12    0.00000E+00     0.00
   60.00   325.00      -3.54 -999.99   -3.54    0.00000     0.00  LINEAR    5.18402E+00  -151.70    0.00000E+00     0.00
   65.00   325.00      -2.13 -999.99   -2.13    0.00000     0.00  LINEAR    6.09817E+00  -150.14    0.00000E+00     0.00
   70.00   325.00      -1.06 -999.99   -1.06    0.00000     0.00  LINEAR    6.89069E+00  -149.11    0.00000E+00     0.00
   75.00   325.00      -0.29 -999.99   -0.29    0.00000     0.00  LINEAR    7.53202E+00  -148.42    0.00000E+00     0.00
   80.00   325.00       0.23 -999.99    0.23    0.00000     0.00  LINEAR    8.00208E+00  -147.97    0.00000E+00     0.00
   85.00   325.00       0.54 -999.99    0.54    0.00000     0.00  LINEAR    8.28837E+00  -147.70    0.00000E+00     0.00
   90.00   325.00       0.64 -999.99    0.64    0.00000     0.00  LINEAR    8.38425E+00  -147.58    0.00000E+00     0.00
    0.00   330.00    -999.99 -999.99 -999.99    0.00000     0.00            0.00000E+00     0.00    0.00000E+00     0.00
    5.00   330.00     -24.82 -999.99  -24.82    0.00000     0.00  LINEAR    4.46993E-01    55.81    0.00000E+00     0.00
   10.00   330.00     -19.07 -999.99  -19.07    0.00000     0.00  LINEAR    8.67241E-01    57.86    0.00000E+00     0.00
   15.00   330.00     -16.32 -999.99  -16.32    0.00000     0.00  LINEAR    1.19013E+00    60.83    0.00000E+00     0.00
   20.00   330.00     -15.13 -999.99  -15.13    0.00000     0.00  LINEAR    1.36496E+00    65.40    0.00000E+00     0.00
   25.00   330.00     -15.08 -999.99  -15.08    0.00000     0.00  LINEAR    1.37196E+00    72.92    0.00000E+00     0.00
   30.00   330.00     -15.95 -999.99  -15.95    0.00000     0.00  LINEAR    1.24143E+00    86.40    0.00000E+00     0.00
   35.00   330.00     -16.99 -999.99  -16.99    0.00000     0.00  LINEAR    1.10184E+00   111.05    0.00000E+00     0.00
   40.00   330.00     -16.14 -999.99  -16.14    0.00000     0.00  LINEAR    1.21440E+00   144.93    0.00000E+00     0.00
   45.00   330.00     -13.20 -999.99  -13.20    0.00000     0.00  LINEAR    1.70410E+00   170.68    0.00000E+00     0.00
   50.00   330.00     -10.13 -999.99  -10.13    0.00000     0.00  LINEAR    2.42764E+00  -175.19    0.00000E+00     0.00
   55.00   330.00      -7.61 -999.99   -7.61    0.00000     0.00  LINEAR    3.24318E+00  -167.42    0.00000E+00     0.00
   60.00   330.00      -5.65 -999.99   -5.65    0.00000     0.00  LINEAR    4.06318E+00  -162.83    0.00000E+00     0.00
   65.00   330.00      -4.15 -999.99   -4.15    0.00000     0.00  LINEAR    4.82897E+00  -159.95    0.00000E+00     0.00
   70.00   330.00      -3.02 -999.99   -3.02    0.00000     0.00  LINEAR    5.49897E+00  -158.08    0.00000E+00     0.00
   75.00   330.00      -2.20 -999.99   -2.20    0.00000     0.00  LINEAR    6.04404E+00  -156.86    0.00000E+00     0.00
   80.00   330.00      -1.65 -999.99   -1.65    0.00000     0.00  LINEAR    6.44480E+00  -156.07    0.00000E+00     0.00
   85.00   330.00      -1.32 -999.99   -1.32    0.00000     0.00  LINEAR    6.68934E+00  -155.62    0.00000E+00     0.00
   90.00   330.00      -1.22 -999.99   -1.22    0.00000     0.00  LINEAR    6.77138E+00  -155.44    0.00000E+00     0.00
    0.00   335.00    -999.99 -999.99 -999.99    0.00000     0.00            0.00000E+00     0.00    0.00000E+00     0.00
    5.00   335.00     -24.64 -999.99  -24.64    0.00000     0.00  LINEAR    4.56777E-01    56.13    0.00000E+00     0.00
   10.00   335.00     -18.64 -999.99  -18.64    0.00000     0.00  LINEAR    9.10515E-01    58.34    0.00000E+00     0.00
   15.00   335.00     -15.58 -999.99  -15.58    0.00000     0.00  LINEAR    1.29529E+00    61.23    0.00000E+00     0.00
   20.00   335.00     -13.96 -999.99  -13.96    0.00000     0.00  LINEAR    1.56186E+00    65.22    0.00000E+00     0.00
   25.00   335.00     -13.29 -999.99  -13.29    0.00000     0.00  LINEAR    1.68557E+00    70.99    0.00000E+00     0.00
   30.00   335.00     -13.35 -999.99  -13.35    0.00000     0.00  LINEAR    1.67470E+00    79.69    0.00000E+00     0.00
   35.00   335.00     -13.84 -999.99  -13.84    0.00000     0.00  LINEAR    1.58241E+00    93.07    0.00000E+00     0.00
   40.00   335.00     -14.19 -999.99  -14.19    0.00000     0.00  LINEAR    1.52049E+00   112.59    0.00000E+00     0.00
   45.00   335.00     -13.57 -999.99  -13.57    0.00000     0.00  LINEAR    1.63246E+00   135.68    0.00000E+00     0.00
   50.00   335.00     -11.91 -999.99  -11.91    0.00000     0.00  LINEAR    1.97776E+00   155.57    0.00000E+00     0.00
   55.00   335.00      -9.91 -999.99   -9.91    0.00000     0.00  LINEAR    2.48982E+00   169.24    0.00000E+00     0.00
   60.00   335.00      -8.08 -999.99   -8.08    0.00000     0.00  LINEAR    3.07139E+00   177.97    0.00000E+00     0.00
   65.00   335.00      -6.59 -999.99   -6.59    0.00000     0.00  LINEAR    3.64801E+00  -176.44    0.00000E+00     0.00
   70.00   335.00      -5.43 -999.99   -5.43    0.00000     0.00  LINEAR    4.16917E+00  -172.80    0.00000E+00     0.00
   75.00   335.00      -4.57 -999.99   -4.57    0.00000     0.00  LINEAR    4.60129E+00  -170.43    0.00000E+00     0.00
   80.00   335.00      -3.99 -999.99   -3.99    0.00000     0.00  LINEAR    4.92265E+00  -168.93    0.00000E+00     0.00
   85.00   335.00      -3.64 -999.99   -3.64    0.00000     0.00  LINEAR    5.12008E+00  -168.09    0.00000E+00     0.00
   90.00   335.00      -3.53 -999.99   -3.53    0.00000     0.00  LINEAR    5.18659E+00  -167.79    0.00000E+00     0.00
    0.00   340.00    -999.99 -999.99 -999.99    0.00000     0.00            0.00000E+00     0.00    0.00000E+00     0.00
    5.00   340.00     -24.45 -999.99  -24.45    0.00000     0.00  LINEAR    4.66549E-01    56.42    0.00000E+00     0.00
   10.00   340.00     -18.23 -999.99  -18.23    0.00000     0.00  LINEAR    9.54590E-01    58.72    0.00000E+00     0.00
   15.00   340.00     -14.88 -999.99  -14.88    0.00000     0.00  LINEAR    1.40371E+00    61.45    0.00000E+00     0.00
   20.00   340.00     -12.89 -999.99  -12.89    0.00000     0.00  LINEAR    1.76641E+00    64.86    0.00000E+00     0.00
   25.00   340.00     -11.75 -999.99  -11.75    0.00000     0.00  LINEAR    2.01394E+00    69.28    0.00000E+00     0.00
   30.00   340.00     -11.22 -999.99  -11.22    0.00000     0.00  LINEAR    2.14044E+00    75.12    0.00000E+00     0.00
   35.00   340.00     -11.12 -999.99  -11.12    0.00000     0.00  LINEAR    2.16543E+00    82.92    0.00000E+00     0.00
   40.00   340.00     -11.25 -999.99  -11.25    0.00000     0.00  LINEAR    2.13395E+00    93.22    0.00000E+00     0.00
   45.00   340.00     -11.34 -999.99  -11.34    0.00000     0.00  LINEAR    2.11115E+00   106.08    0.00000E+00     0.00
   50.00   340.00     -11.13 -999.99  -11.13    0.00000     0.00  LINEAR    2.16303E+00   120.52    0.00000E+00     0.00
   55.00   340.00     -10.50 -999.99  -10.50    0.00000     0.00  LINEAR    2.32463E+00   134.49    0.00000E+00     0.00
   60.00   340.00      -9.59 -999.99   -9.59    0.00000     0.00  LINEAR    2.58289E+00   146.23    0.00000E+00     0.00
   65.00   340.00      -8.60 -999.99   -8.60    0.00000     0.00  LINEAR    2.89366E+00   155.15    0.00000E+00     0.00
   70.00   340.00      -7.70 -999.99   -7.70    0.00000     0.00  LINEAR    3.20836E+00   161.54    0.00000E+00     0.00
   75.00   340.00      -6.98 -999.99   -6.98    0.00000     0.00  LINEAR    3.48773E+00   165.93    0.00000E+00     0.00
   80.00   340.00      -6.46 -999.99   -6.46    0.00000     0.00  LINEAR    3.70424E+00   168.77    0.00000E+00     0.00
   85.00   340.00      -6.14 -999.99   -6.14    0.00000     0.00  LINEAR    3.84046E+00   170.37    0.00000E+00     0.00
   90.00   340.00      -6.04 -999.99   -6.04    0.00000     0.00  LINEAR    3.88692E+00   170.92    0.00000E+00     0.00
    0.00   345.00    -999.99 -999.99 -999.99    0.00000     0.00            0.00000E+00     0.00    0.00000E+00     0.00
    5.00   345.00     -24.27 -999.99  -24.27    0.00000     0.00  LINEAR    4.76197E-01    56.68    0.00000E+00     0.00
   10.00   345.00     -17.84 -999.99  -17.84    0.00000     0.00  LINEAR    9.98856E-01    59.01    0.00000E+00     0.00
   15.00   345.00     -14.23 -999.99  -14.23    0.00000     0.00  LINEAR    1.51372E+00    61.54    0.00000E+00     0.00
   20.00   345.00     -11.92 -999.99  -11.92    0.00000     0.00  LINEAR    1.97531E+00    64.41    0.00000E+00     0.00
   25.00   345.00     -10.40 -999.99  -10.40    0.00000     0.00  LINEAR    2.35157E+00    67.77    0.00000E+00     0.00
   30.00   345.00      -9.44 -999.99   -9.44    0.00000     0.00  LINEAR    2.62653E+00    71.77    0.00000E+00     0.00
   35.00   345.00      -8.88 -999.99   -8.88    0.00000     0.00  LINEAR    2.80100E+00    76.57    0.00000E+00     0.00
   40.00   345.00      -8.61 -999.99   -8.61    0.00000     0.00  LINEAR    2.89094E+00    82.28    0.00000E+00     0.00
   45.00   345.00      -8.51 -999.99   -8.51    0.00000     0.00  LINEAR    2.92361E+00    88.94    0.00000E+00     0.00
   50.00   345.00      -8.49 -999.99   -8.49    0.00000     0.00  LINEAR    2.93146E+00    96.44    0.00000E+00     0.00
   55.00   345.00      -8.45 -999.99   -8.45    0.00000     0.00  LINEAR    2.94431E+00   104.44    0.00000E+00     0.00
   60.00   345.00      -8.34 -999.99   -8.34    0.00000     0.00  LINEAR    2.98159E+00   112.42    0.00000E+00     0.00
   65.00   345.00      -8.15 -999.99   -8.15    0.00000     0.00  LINEAR    3.04820E+00   119.80    0.00000E+00     0.00
   70.00   345.00      -7.90 -999.99   -7.90    0.00000     0.00  LINEAR    3.13584E+00   126.12    0.00000E+00     0.00
   75.00   345.00      -7.65 -999.99   -7.65    0.00000     0.00  LINEAR    3.22864E+00   131.09    0.00000E+00     0.00
   80.00   345.00      -7.43 -999.99   -7.43    0.00000     0.00  LINEAR    3.30940E+00   134.65    0.00000E+00     0.00
   85.00   345.00      -7.29 -999.99   -7.29    0.00000     0.00  LINEAR    3.36389E+00   136.78    0.00000E+00     0.00
   90.00   345.00      -7.24 -999.99   -7.24    0.00000     0.00  LINEAR    3.38312E+00   137.52    0.00000E+00     0.00
    0.00   350.00    -999.99 -999.99 -999.99    0.00000     0.00            0.00000E+00     0.00    0.00000E+00     0.00
    5.00   350.00     -24.10 -999.99  -24.10    0.00000     0.00  LINEAR    4.85612E-01    56.91    0.00000E+00     0.00
   10.00   350.00     -17.47 -999.99  -17.47    0.00000     0.00  LINEAR    1.04268E+00    59.24    0.00000E+00     0.00
   15.00   350.00     -13.62 -999.99  -13.62    0.00000     0.00  LINEAR    1.62357E+00    61.53    0.00000E+00     0.00
   20.00   350.00     -11.04 -999.99  -11.04    0.00000     0.00  LINEAR    2.18513E+00    63.90    0.00000E+00     0.00
   25.00   350.00      -9.23 -999.99   -9.23    0.00000     0.00  LINEAR    2.69263E+00    66.44    0.00000E+00     0.00
   30.00   350.00      -7.94 -999.99   -7.94    0.00000     0.00  LINEAR    3.12227E+00    69.19    0.00000E+00     0.00
   35.00   350.00      -7.04 -999.99   -7.04    0.00000     0.00  LINEAR    3.46210E+00    72.21    0.00000E+00     0.00
   40.00   350.00      -6.44 -999.99   -6.44    0.00000     0.00  LINEAR    3.71145E+00    75.51    0.00000E+00     0.00
   45.00   350.00      -6.06 -999.99   -6.06    0.00000     0.00  LINEAR    3.87890E+00    79.10    0.00000E+00     0.00
   50.00   350.00      -5.83 -999.99   -5.83    0.00000     0.00  LINEAR    3.97939E+00    82.92    0.00000E+00     0.00
   55.00   350.00      -5.72 -999.99   -5.72    0.00000     0.00  LINEAR    4.03081E+00    86.89    0.00000E+00     0.00
   60.00   350.00      -5.68 -999.99   -5.68    0.00000     0.00  LINEAR    4.05072E+00    90.88    0.00000E+00     0.00
   65.00   350.00      -5.67 -999.99   -5.67    0.00000     0.00  LINEAR    4.05379E+00    94.71    0.00000E+00     0.00
   70.00   350.00      -5.68 -999.99   -5.68    0.00000     0.00  LINEAR    4.05033E+00    98.19    0.00000E+00     0.00
   75.00   350.00      -5.69 -999.99   -5.69    0.00000     0.00  LINEAR    4.04615E+00   101.13    0.00000E+00     0.00
   80.00   350.00      -5.69 -999.99   -5.69    0.00000     0.00  LINEAR    4.04344E+00   103.38    0.00000E+00     0.00
   85.00   350.00      -5.70 -999.99   -5.70    0.00000     0.00  LINEAR    4.04222E+00   104.79    0.00000E+00     0.00
   90.00   350.00      -5.70 -999.99   -5.70    0.00000     0.00  LINEAR    4.04182E+00   105.31    0.00000E+00     0.00
    0.00   355.00    -999.99 -999.99 -999.99    0.00000     0.00            0.00000E+00     0.00    0.00000E+00     0.00
    5.00   355.00     -23.94 -999.99  -23.94    0.00000     0.00  LINEAR    4.94679E-01    57.11    0.00000E+00     0.00
   10.00   355.00     -17.12 -999.99  -17.12    0.00000     0.00  LINEAR    1.08542E+00    59.41    0.00000E+00     0.00
   15.00   355.00     -13.06 -999.99  -13.06    0.00000     0.00  LINEAR    1.73150E+00    61.46    0.00000E+00     0.00
   20.00   355.00     -10.25 -999.99  -10.25    0.00000     0.00  LINEAR    2.39233E+00    63.39    0.00000E+00     0.00
   25.00   355.00      -8.20 -999.99   -8.20    0.00000     0.00  LINEAR    3.03110E+00    65.26    0.00000E+00     0.00
   30.00   355.00      -6.66 -999.99   -6.66    0.00000     0.00  LINEAR    3.61753E+00    67.13    0.00000E+00     0.00
   35.00   355.00      -5.51 -999.99   -5.51    0.00000     0.00  LINEAR    4.12968E+00    69.02    0.00000E+00     0.00
   40.00   355.00      -4.66 -999.99   -4.66    0.00000     0.00  LINEAR    4.55468E+00    70.94    0.00000E+00     0.00
   45.00   355.00      -4.05 -999.99   -4.05    0.00000     0.00  LINEAR    4.88845E+00    72.90    0.00000E+00     0.00
   50.00   355.00      -3.62 -999.99   -3.62    0.00000     0.00  LINEAR    5.13458E+00    74.87    0.00000E+00     0.00
   55.00   355.00      -3.34 -999.99   -3.34    0.00000     0.00  LINEAR    5.30260E+00    76.84    0.00000E+00     0.00
   60.00   355.00      -3.17 -999.99   -3.17    0.00000     0.00  LINEAR    5.40598E+00    78.75    0.00000E+00     0.00
   65.00   355.00      -3.09 -999.99   -3.09    0.00000     0.00  LINEAR    5.46006E+00    80.56    0.00000E+00     0.00
   70.00   355.00      -3.05 -999.99   -3.05    0.00000     0.00  LINEAR    5.48018E+00    82.19    0.00000E+00     0.00
   75.00   355.00      -3.05 -999.99   -3.05    0.00000     0.00  LINEAR    5.48028E+00    83.58    0.00000E+00     0.00
   80.00   355.00      -3.07 -999.99   -3.07    0.00000     0.00  LINEAR    5.47180E+00    84.65    0.00000E+00     0.00
   85.00   355.00      -3.08 -999.99   -3.08    0.00000     0.00  LINEAR    5.46316E+00    85.34    0.00000E+00     0.00
   90.00   355.00      -3.09 -999.99   -3.09    0.00000     0.00  LINEAR    5.45945E+00    85.61    0.00000E+00     0.00






 ***** DATA CARD NO.  8   EN   0     0     0     0  0.00000E+00  0.00000E+00  0.00000E+00  0.00000E+00  0.00000E+00  0.00000E+00

 RUN TIME =     0.078
