1



                                 *********************************************

                                    NUMERICAL ELECTROMAGNETICS CODE (NEC-2D)

                                 *********************************************




                                     - - - - COMMENTS - - - -


                                                                                                     
                                                                                                     




                                 - - - STRUCTURE SPECIFICATION - - -

                                     COORDINATES MUST BE INPUT IN
                                     METERS OR BE SCALED TO METERS
                                     BEFORE STRUCTURE INPUT IS ENDED


  WIRE                                                                               NO. OF    FIRST  LAST     TAG
  NO.        X1         Y1         Z1          X2         Y2         Z2      RADIUS   SEG.     SEG.   SEG.     NO.
     1   -7.50000   -5.00000   -5.00000    -7.50000   -5.00000    5.00000    0.00100     20        1    20     101
     2   -2.50000   -5.00000   -5.00000    -2.50000   -5.00000    5.00000    0.00100     20       21    40     102
     3    2.50000   -5.00000   -5.00000     2.50000   -5.00000    5.00000    0.00100     20       41    60     103
     4    7.50000   -5.00000   -5.00000     7.50000   -5.00000    5.00000    0.00100     20       61    80     104
     5   -7.50000    0.00000   -5.00000    -7.50000    0.00000    5.00000    0.00100     20       81   100     201
     6   -2.50000    0.00000   -5.00000    -2.50000    0.00000    5.00000    0.00100     20      101   120     202
     7    2.50000    0.00000   -5.00000     2.50000    0.00000    5.00000    0.00100     20      121   140     203
     8    7.50000    0.00000   -5.00000     7.50000    0.00000    5.00000    0.00100     20      141   160     204
     9   -7.50000    5.00000   -5.00000    -7.50000    5.00000    5.00000    0.00100     20      161   180     301
    10   -2.50000    5.00000   -5.00000    -2.50000    5.00000    5.00000    0.00100     20      181   200     302
    11    2.50000    5.00000   -5.00000     2.50000    5.00000    5.00000    0.00100     20      201   220     303
    12    7.50000    5.00000   -5.00000     7.50000    5.00000    5.00000    0.00100     20      221   240     304

   TOTAL SEGMENTS USED=  240     NO. SEG. IN A SYMMETRIC CELL=  240     SYMMETRY FLAG=  0


         - MULTIPLE WIRE JUNCTIONS -
 JUNCTION    SEGMENTS  (- FOR END 1, + FOR END 2)
  NONE




                                 - - - - SEGMENTATION DATA - - - -

                                        COORDINATES IN METERS

                         I+ AND I- INDICATE THE SEGMENTS BEFORE AND AFTER I


  SEG.   COORDINATES OF SEG. CENTER     SEG.     ORIENTATION ANGLES    WIRE    CONNECTION DATA   TAG
  NO.       X         Y         Z       LENGTH     ALPHA     BETA      RADIUS    I-   I    I+    NO.
     1  -7.50000  -5.00000  -4.75000   0.50000   90.00000   0.00000   0.00100     0    1    2    101
     2  -7.50000  -5.00000  -4.25000   0.50000   90.00000   0.00000   0.00100     1    2    3    101
     3  -7.50000  -5.00000  -3.75000   0.50000   90.00000   0.00000   0.00100     2    3    4    101
     4  -7.50000  -5.00000  -3.25000   0.50000   90.00000   0.00000   0.00100     3    4    5    101
     5  -7.50000  -5.00000  -2.75000   0.50000   90.00000   0.00000   0.00100     4    5    6    101
     6  -7.50000  -5.00000  -2.25000   0.50000   90.00000   0.00000   0.00100     5    6    7    101
     7  -7.50000  -5.00000  -1.75000   0.50000   90.00000   0.00000   0.00100     6    7    8    101
     8  -7.50000  -5.00000  -1.25000   0.50000   90.00000   0.00000   0.00100     7    8    9    101
     9  -7.50000  -5.00000  -0.75000   0.50000   90.00000   0.00000   0.00100     8    9   10    101
    10  -7.50000  -5.00000  -0.25000   0.50000   90.00000   0.00000   0.00100     9   10   11    101
    11  -7.50000  -5.00000   0.25000   0.50000   90.00000   0.00000   0.00100    10   11   12    101
    12  -7.50000  -5.00000   0.75000   0.50000   90.00000   0.00000   0.00100    11   12   13    101
    13  -7.50000  -5.00000   1.25000   0.50000   90.00000   0.00000   0.00100    12   13   14    101
    14  -7.50000  -5.00000   1.75000   0.50000   90.00000   0.00000   0.00100    13   14   15    101
    15  -7.50000  -5.00000   2.25000   0.50000   90.00000   0.00000   0.00100    14   15   16    101
    16  -7.50000  -5.00000   2.75000   0.50000   90.00000   0.00000   0.00100    15   16   17    101
    17  -7.50000  -5.00000   3.25000   0.50000   90.00000   0.00000   0.00100    16   17   18    101
    18  -7.50000  -5.00000   3.75000   0.50000   90.00000   0.00000   0.00100    17   18   19    101
    19  -7.50000  -5.00000   4.25000   0.50000   90.00000   0.00000   0.00100    18   19   20    101
    20  -7.50000  -5.00000   4.75000   0.50000   90.00000   0.00000   0.00100    19   20    0    101
    21  -2.50000  -5.00000  -4.75000   0.50000   90.00000   0.00000   0.00100     0   21   22    102
    22  -2.50000  -5.00000  -4.25000   0.50000   90.00000   0.00000   0.00100    21   22   23    102
    23  -2.50000  -5.00000  -3.75000   0.50000   90.00000   0.00000   0.00100    22   23   24    102
    24  -2.50000  -5.00000  -3.25000   0.50000   90.00000   0.00000   0.00100    23   24   25    102
    25  -2.50000  -5.00000  -2.75000   0.50000   90.00000   0.00000   0.00100    24   25   26    102
    26  -2.50000  -5.00000  -2.25000   0.50000   90.00000   0.00000   0.00100    25   26   27    102
    27  -2.50000  -5.00000  -1.75000   0.50000   90.00000   0.00000   0.00100    26   27   28    102
    28  -2.50000  -5.00000  -1.25000   0.50000   90.00000   0.00000   0.00100    27   28   29    102
    29  -2.50000  -5.00000  -0.75000   0.50000   90.00000   0.00000   0.00100    28   29   30    102
    30  -2.50000  -5.00000  -0.25000   0.50000   90.00000   0.00000   0.00100    29   30   31    102
    31  -2.50000  -5.00000   0.25000   0.50000   90.00000   0.00000   0.00100    30   31   32    102
    32  -2.50000  -5.00000   0.75000   0.50000   90.00000   0.00000   0.00100    31   32   33    102
    33  -2.50000  -5.00000   1.25000   0.50000   90.00000   0.00000   0.00100    32   33   34    102
    34  -2.50000  -5.00000   1.75000   0.50000   90.00000   0.00000   0.00100    33   34   35    102
    35  -2.50000  -5.00000   2.25000   0.50000   90.00000   0.00000   0.00100    34   35   36    102
    36  -2.50000  -5.00000   2.75000   0.50000   90.00000   0.00000   0.00100    35   36   37    102
    37  -2.50000  -5.00000   3.25000   0.50000   90.00000   0.00000   0.00100    36   37   38    102
    38  -2.50000  -5.00000   3.75000   0.50000   90.00000   0.00000   0.00100    37   38   39    102
    39  -2.50000  -5.00000   4.25000   0.50000   90.00000   0.00000   0.00100    38   39   40    102
    40  -2.50000  -5.00000   4.75000   0.50000   90.00000   0.00000   0.00100    39   40    0    102
    41   2.50000  -5.00000  -4.75000   0.50000   90.00000   0.00000   0.00100     0   41   42    103
    42   2.50000  -5.00000  -4.25000   0.50000   90.00000   0.00000   0.00100    41   42   43    103
    43   2.50000  -5.00000  -3.75000   0.50000   90.00000   0.00000   0.00100    42   43   44    103
    44   2.50000  -5.00000  -3.25000   0.50000   90.00000   0.00000   0.00100    43   44   45    103
    45   2.50000  -5.00000  -2.75000   0.50000   90.00000   0.00000   0.00100    44   45   46    103
    46   2.50000  -5.00000  -2.25000   0.50000   90.00000   0.00000   0.00100    45   46   47    103
    47   2.50000  -5.00000  -1.75000   0.50000   90.00000   0.00000   0.00100    46   47   48    103
    48   2.50000  -5.00000  -1.25000   0.50000   90.00000   0.00000   0.00100    47   48   49    103
    49   2.50000  -5.00000  -0.75000   0.50000   90.00000   0.00000   0.00100    48   49   50    103
    50   2.50000  -5.00000  -0.25000   0.50000   90.00000   0.00000   0.00100    49   50   51    103
    51   2.50000  -5.00000   0.25000   0.50000   90.00000   0.00000   0.00100    50   51   52    103
    52   2.50000  -5.00000   0.75000   0.50000   90.00000   0.00000   0.00100    51   52   53    103
    53   2.50000  -5.00000   1.25000   0.50000   90.00000   0.00000   0.00100    52   53   54    103
    54   2.50000  -5.00000   1.75000   0.50000   90.00000   0.00000   0.00100    53   54   55    103
    55   2.50000  -5.00000   2.25000   0.50000   90.00000   0.00000   0.00100    54   55   56    103
    56   2.50000  -5.00000   2.75000   0.50000   90.00000   0.00000   0.00100    55   56   57    103
    57   2.50000  -5.00000   3.25000   0.50000   90.00000   0.00000   0.00100    56   57   58    103
    58   2.50000  -5.00000   3.75000   0.50000   90.00000   0.00000   0.00100    57   58   59    103
    59   2.50000  -5.00000   4.25000   0.50000   90.00000   0.00000   0.00100    58   59   60    103
    60   2.50000  -5.00000   4.75000   0.50000   90.00000   0.00000   0.00100    59   60    0    103
    61   7.50000  -5.00000  -4.75000   0.50000   90.00000   0.00000   0.00100     0   61   62    104
    62   7.50000  -5.00000  -4.25000   0.50000   90.00000   0.00000   0.00100    61   62   63    104
    63   7.50000  -5.00000  -3.75000   0.50000   90.00000   0.00000   0.00100    62   63   64    104
    64   7.50000  -5.00000  -3.25000   0.50000   90.00000   0.00000   0.00100    63   64   65    104
    65   7.50000  -5.00000  -2.75000   0.50000   90.00000   0.00000   0.00100    64   65   66    104
    66   7.50000  -5.00000  -2.25000   0.50000   90.00000   0.00000   0.00100    65   66   67    104
    67   7.50000  -5.00000  -1.75000   0.50000   90.00000   0.00000   0.00100    66   67   68    104
    68   7.50000  -5.00000  -1.25000   0.50000   90.00000   0.00000   0.00100    67   68   69    104
    69   7.50000  -5.00000  -0.75000   0.50000   90.00000   0.00000   0.00100    68   69   70    104
    70   7.50000  -5.00000  -0.25000   0.50000   90.00000   0.00000   0.00100    69   70   71    104
    71   7.50000  -5.00000   0.25000   0.50000   90.00000   0.00000   0.00100    70   71   72    104
    72   7.50000  -5.00000   0.75000   0.50000   90.00000   0.00000   0.00100    71   72   73    104
    73   7.50000  -5.00000   1.25000   0.50000   90.00000   0.00000   0.00100    72   73   74    104
    74   7.50000  -5.00000   1.75000   0.50000   90.00000   0.00000   0.00100    73   74   75    104
    75   7.50000  -5.00000   2.25000   0.50000   90.00000   0.00000   0.00100    74   75   76    104
    76   7.50000  -5.00000   2.75000   0.50000   90.00000   0.00000   0.00100    75   76   77    104
    77   7.50000  -5.00000   3.25000   0.50000   90.00000   0.00000   0.00100    76   77   78    104
    78   7.50000  -5.00000   3.75000   0.50000   90.00000   0.00000   0.00100    77   78   79    104
    79   7.50000  -5.00000   4.25000   0.50000   90.00000   0.00000   0.00100    78   79   80    104
    80   7.50000  -5.00000   4.75000   0.50000   90.00000   0.00000   0.00100    79   80    0    104
    81  -7.50000   0.00000  -4.75000   0.50000   90.00000   0.00000   0.00100     0   81   82    201
    82  -7.50000   0.00000  -4.25000   0.50000   90.00000   0.00000   0.00100    81   82   83    201
    83  -7.50000   0.00000  -3.75000   0.50000   90.00000   0.00000   0.00100    82   83   84    201
    84  -7.50000   0.00000  -3.25000   0.50000   90.00000   0.00000   0.00100    83   84   85    201
    85  -7.50000   0.00000  -2.75000   0.50000   90.00000   0.00000   0.00100    84   85   86    201
    86  -7.50000   0.00000  -2.25000   0.50000   90.00000   0.00000   0.00100    85   86   87    201
    87  -7.50000   0.00000  -1.75000   0.50000   90.00000   0.00000   0.00100    86   87   88    201
    88  -7.50000   0.00000  -1.25000   0.50000   90.00000   0.00000   0.00100    87   88   89    201
    89  -7.50000   0.00000  -0.75000   0.50000   90.00000   0.00000   0.00100    88   89   90    201
    90  -7.50000   0.00000  -0.25000   0.50000   90.00000   0.00000   0.00100    89   90   91    201
    91  -7.50000   0.00000   0.25000   0.50000   90.00000   0.00000   0.00100    90   91   92    201
    92  -7.50000   0.00000   0.75000   0.50000   90.00000   0.00000   0.00100    91   92   93    201
    93  -7.50000   0.00000   1.25000   0.50000   90.00000   0.00000   0.00100    92   93   94    201
    94  -7.50000   0.00000   1.75000   0.50000   90.00000   0.00000   0.00100    93   94   95    201
    95  -7.50000   0.00000   2.25000   0.50000   90.00000   0.00000   0.00100    94   95   96    201
    96  -7.50000   0.00000   2.75000   0.50000   90.00000   0.00000   0.00100    95   96   97    201
    97  -7.50000   0.00000   3.25000   0.50000   90.00000   0.00000   0.00100    96   97   98    201
    98  -7.50000   0.00000   3.75000   0.50000   90.00000   0.00000   0.00100    97   98   99    201
    99  -7.50000   0.00000   4.25000   0.50000   90.00000   0.00000   0.00100    98   99  100    201
   100  -7.50000   0.00000   4.75000   0.50000   90.00000   0.00000   0.00100    99  100    0    201
   101  -2.50000   0.00000  -4.75000   0.50000   90.00000   0.00000   0.00100     0  101  102    202
   102  -2.50000   0.00000  -4.25000   0.50000   90.00000   0.00000   0.00100   101  102  103    202
   103  -2.50000   0.00000  -3.75000   0.50000   90.00000   0.00000   0.00100   102  103  104    202
   104  -2.50000   0.00000  -3.25000   0.50000   90.00000   0.00000   0.00100   103  104  105    202
   105  -2.50000   0.00000  -2.75000   0.50000   90.00000   0.00000   0.00100   104  105  106    202
   106  -2.50000   0.00000  -2.25000   0.50000   90.00000   0.00000   0.00100   105  106  107    202
   107  -2.50000   0.00000  -1.75000   0.50000   90.00000   0.00000   0.00100   106  107  108    202
   108  -2.50000   0.00000  -1.25000   0.50000   90.00000   0.00000   0.00100   107  108  109    202
   109  -2.50000   0.00000  -0.75000   0.50000   90.00000   0.00000   0.00100   108  109  110    202
   110  -2.50000   0.00000  -0.25000   0.50000   90.00000   0.00000   0.00100   109  110  111    202
   111  -2.50000   0.00000   0.25000   0.50000   90.00000   0.00000   0.00100   110  111  112    202
   112  -2.50000   0.00000   0.75000   0.50000   90.00000   0.00000   0.00100   111  112  113    202
   113  -2.50000   0.00000   1.25000   0.50000   90.00000   0.00000   0.00100   112  113  114    202
   114  -2.50000   0.00000   1.75000   0.50000   90.00000   0.00000   0.00100   113  114  115    202
   115  -2.50000   0.00000   2.25000   0.50000   90.00000   0.00000   0.00100   114  115  116    202
   116  -2.50000   0.00000   2.75000   0.50000   90.00000   0.00000   0.00100   115  116  117    202
   117  -2.50000   0.00000   3.25000   0.50000   90.00000   0.00000   0.00100   116  117  118    202
   118  -2.50000   0.00000   3.75000   0.50000   90.00000   0.00000   0.00100   117  118  119    202
   119  -2.50000   0.00000   4.25000   0.50000   90.00000   0.00000   0.00100   118  119  120    202
   120  -2.50000   0.00000   4.75000   0.50000   90.00000   0.00000   0.00100   119  120    0    202
   121   2.50000   0.00000  -4.75000   0.50000   90.00000   0.00000   0.00100     0  121  122    203
   122   2.50000   0.00000  -4.25000   0.50000   90.00000   0.00000   0.00100   121  122  123    203
   123   2.50000   0.00000  -3.75000   0.50000   90.00000   0.00000   0.00100   122  123  124    203
   124   2.50000   0.00000  -3.25000   0.50000   90.00000   0.00000   0.00100   123  124  125    203
   125   2.50000   0.00000  -2.75000   0.50000   90.00000   0.00000   0.00100   124  125  126    203
   126   2.50000   0.00000  -2.25000   0.50000   90.00000   0.00000   0.00100   125  126  127    203
   127   2.50000   0.00000  -1.75000   0.50000   90.00000   0.00000   0.00100   126  127  128    203
   128   2.50000   0.00000  -1.25000   0.50000   90.00000   0.00000   0.00100   127  128  129    203
   129   2.50000   0.00000  -0.75000   0.50000   90.00000   0.00000   0.00100   128  129  130    203
   130   2.50000   0.00000  -0.25000   0.50000   90.00000   0.00000   0.00100   129  130  131    203
   131   2.50000   0.00000   0.25000   0.50000   90.00000   0.00000   0.00100   130  131  132    203
   132   2.50000   0.00000   0.75000   0.50000   90.00000   0.00000   0.00100   131  132  133    203
   133   2.50000   0.00000   1.25000   0.50000   90.00000   0.00000   0.00100   132  133  134    203
   134   2.50000   0.00000   1.75000   0.50000   90.00000   0.00000   0.00100   133  134  135    203
   135   2.50000   0.00000   2.25000   0.50000   90.00000   0.00000   0.00100   134  135  136    203
   136   2.50000   0.00000   2.75000   0.50000   90.00000   0.00000   0.00100   135  136  137    203
   137   2.50000   0.00000   3.25000   0.50000   90.00000   0.00000   0.00100   136  137  138    203
   138   2.50000   0.00000   3.75000   0.50000   90.00000   0.00000   0.00100   137  138  139    203
   139   2.50000   0.00000   4.25000   0.50000   90.00000   0.00000   0.00100   138  139  140    203
   140   2.50000   0.00000   4.75000   0.50000   90.00000   0.00000   0.00100   139  140    0    203
   141   7.50000   0.00000  -4.75000   0.50000   90.00000   0.00000   0.00100     0  141  142    204
   142   7.50000   0.00000  -4.25000   0.50000   90.00000   0.00000   0.00100   141  142  143    204
   143   7.50000   0.00000  -3.75000   0.50000   90.00000   0.00000   0.00100   142  143  144    204
   144   7.50000   0.00000  -3.25000   0.50000   90.00000   0.00000   0.00100   143  144  145    204
   145   7.50000   0.00000  -2.75000   0.50000   90.00000   0.00000   0.00100   144  145  146    204
   146   7.50000   0.00000  -2.25000   0.50000   90.00000   0.00000   0.00100   145  146  147    204
   147   7.50000   0.00000  -1.75000   0.50000   90.00000   0.00000   0.00100   146  147  148    204
   148   7.50000   0.00000  -1.25000   0.50000   90.00000   0.00000   0.00100   147  148  149    204
   149   7.50000   0.00000  -0.75000   0.50000   90.00000   0.00000   0.00100   148  149  150    204
   150   7.50000   0.00000  -0.25000   0.50000   90.00000   0.00000   0.00100   149  150  151    204
   151   7.50000   0.00000   0.25000   0.50000   90.00000   0.00000   0.00100   150  151  152    204
   152   7.50000   0.00000   0.75000   0.50000   90.00000   0.00000   0.00100   151  152  153    204
   153   7.50000   0.00000   1.25000   0.50000   90.00000   0.00000   0.00100   152  153  154    204
   154   7.50000   0.00000   1.75000   0.50000   90.00000   0.00000   0.00100   153  154  155    204
   155   7.50000   0.00000   2.25000   0.50000   90.00000   0.00000   0.00100   154  155  156    204
   156   7.50000   0.00000   2.75000   0.50000   90.00000   0.00000   0.00100   155  156  157    204
   157   7.50000   0.00000   3.25000   0.50000   90.00000   0.00000   0.00100   156  157  158    204
   158   7.50000   0.00000   3.75000   0.50000   90.00000   0.00000   0.00100   157  158  159    204
   159   7.50000   0.00000   4.25000   0.50000   90.00000   0.00000   0.00100   158  159  160    204
   160   7.50000   0.00000   4.75000   0.50000   90.00000   0.00000   0.00100   159  160    0    204
   161  -7.50000   5.00000  -4.75000   0.50000   90.00000   0.00000   0.00100     0  161  162    301
   162  -7.50000   5.00000  -4.25000   0.50000   90.00000   0.00000   0.00100   161  162  163    301
   163  -7.50000   5.00000  -3.75000   0.50000   90.00000   0.00000   0.00100   162  163  164    301
   164  -7.50000   5.00000  -3.25000   0.50000   90.00000   0.00000   0.00100   163  164  165    301
   165  -7.50000   5.00000  -2.75000   0.50000   90.00000   0.00000   0.00100   164  165  166    301
   166  -7.50000   5.00000  -2.25000   0.50000   90.00000   0.00000   0.00100   165  166  167    301
   167  -7.50000   5.00000  -1.75000   0.50000   90.00000   0.00000   0.00100   166  167  168    301
   168  -7.50000   5.00000  -1.25000   0.50000   90.00000   0.00000   0.00100   167  168  169    301
   169  -7.50000   5.00000  -0.75000   0.50000   90.00000   0.00000   0.00100   168  169  170    301
   170  -7.50000   5.00000  -0.25000   0.50000   90.00000   0.00000   0.00100   169  170  171    301
   171  -7.50000   5.00000   0.25000   0.50000   90.00000   0.00000   0.00100   170  171  172    301
   172  -7.50000   5.00000   0.75000   0.50000   90.00000   0.00000   0.00100   171  172  173    301
   173  -7.50000   5.00000   1.25000   0.50000   90.00000   0.00000   0.00100   172  173  174    301
   174  -7.50000   5.00000   1.75000   0.50000   90.00000   0.00000   0.00100   173  174  175    301
   175  -7.50000   5.00000   2.25000   0.50000   90.00000   0.00000   0.00100   174  175  176    301
   176  -7.50000   5.00000   2.75000   0.50000   90.00000   0.00000   0.00100   175  176  177    301
   177  -7.50000   5.00000   3.25000   0.50000   90.00000   0.00000   0.00100   176  177  178    301
   178  -7.50000   5.00000   3.75000   0.50000   90.00000   0.00000   0.00100   177  178  179    301
   179  -7.50000   5.00000   4.25000   0.50000   90.00000   0.00000   0.00100   178  179  180    301
   180  -7.50000   5.00000   4.75000   0.50000   90.00000   0.00000   0.00100   179  180    0    301
   181  -2.50000   5.00000  -4.75000   0.50000   90.00000   0.00000   0.00100     0  181  182    302
   182  -2.50000   5.00000  -4.25000   0.50000   90.00000   0.00000   0.00100   181  182  183    302
   183  -2.50000   5.00000  -3.75000   0.50000   90.00000   0.00000   0.00100   182  183  184    302
   184  -2.50000   5.00000  -3.25000   0.50000   90.00000   0.00000   0.00100   183  184  185    302
   185  -2.50000   5.00000  -2.75000   0.50000   90.00000   0.00000   0.00100   184  185  186    302
   186  -2.50000   5.00000  -2.25000   0.50000   90.00000   0.00000   0.00100   185  186  187    302
   187  -2.50000   5.00000  -1.75000   0.50000   90.00000   0.00000   0.00100   186  187  188    302
   188  -2.50000   5.00000  -1.25000   0.50000   90.00000   0.00000   0.00100   187  188  189    302
   189  -2.50000   5.00000  -0.75000   0.50000   90.00000   0.00000   0.00100   188  189  190    302
   190  -2.50000   5.00000  -0.25000   0.50000   90.00000   0.00000   0.00100   189  190  191    302
   191  -2.50000   5.00000   0.25000   0.50000   90.00000   0.00000   0.00100   190  191  192    302
   192  -2.50000   5.00000   0.75000   0.50000   90.00000   0.00000   0.00100   191  192  193    302
   193  -2.50000   5.00000   1.25000   0.50000   90.00000   0.00000   0.00100   192  193  194    302
   194  -2.50000   5.00000   1.75000   0.50000   90.00000   0.00000   0.00100   193  194  195    302
   195  -2.50000   5.00000   2.25000   0.50000   90.00000   0.00000   0.00100   194  195  196    302
   196  -2.50000   5.00000   2.75000   0.50000   90.00000   0.00000   0.00100   195  196  197    302
   197  -2.50000   5.00000   3.25000   0.50000   90.00000   0.00000   0.00100   196  197  198    302
   198  -2.50000   5.00000   3.75000   0.50000   90.00000   0.00000   0.00100   197  198  199    302
   199  -2.50000   5.00000   4.25000   0.50000   90.00000   0.00000   0.00100   198  199  200    302
   200  -2.50000   5.00000   4.75000   0.50000   90.00000   0.00000   0.00100   199  200    0    302
   201   2.50000   5.00000  -4.75000   0.50000   90.00000   0.00000   0.00100     0  201  202    303
   202   2.50000   5.00000  -4.25000   0.50000   90.00000   0.00000   0.00100   201  202  203    303
   203   2.50000   5.00000  -3.75000   0.50000   90.00000   0.00000   0.00100   202  203  204    303
   204   2.50000   5.00000  -3.25000   0.50000   90.00000   0.00000   0.00100   203  204  205    303
   205   2.50000   5.00000  -2.75000   0.50000   90.00000   0.00000   0.00100   204  205  206    303
   206   2.50000   5.00000  -2.25000   0.50000   90.00000   0.00000   0.00100   205  206  207    303
   207   2.50000   5.00000  -1.75000   0.50000   90.00000   0.00000   0.00100   206  207  208    303
   208   2.50000   5.00000  -1.25000   0.50000   90.00000   0.00000   0.00100   207  208  209    303
   209   2.50000   5.00000  -0.75000   0.50000   90.00000   0.00000   0.00100   208  209  210    303
   210   2.50000   5.00000  -0.25000   0.50000   90.00000   0.00000   0.00100   209  210  211    303
   211   2.50000   5.00000   0.25000   0.50000   90.00000   0.00000   0.00100   210  211  212    303
   212   2.50000   5.00000   0.75000   0.50000   90.00000   0.00000   0.00100   211  212  213    303
   213   2.50000   5.00000   1.25000   0.50000   90.00000   0.00000   0.00100   212  213  214    303
   214   2.50000   5.00000   1.75000   0.50000   90.00000   0.00000   0.00100   213  214  215    303
   215   2.50000   5.00000   2.25000   0.50000   90.00000   0.00000   0.00100   214  215  216    303
   216   2.50000   5.00000   2.75000   0.50000   90.00000   0.00000   0.00100   215  216  217    303
   217   2.50000   5.00000   3.25000   0.50000   90.00000   0.00000   0.00100   216  217  218    303
   218   2.50000   5.00000   3.75000   0.50000   90.00000   0.00000   0.00100   217  218  219    303
   219   2.50000   5.00000   4.25000   0.50000   90.00000   0.00000   0.00100   218  219  220    303
   220   2.50000   5.00000   4.75000   0.50000   90.00000   0.00000   0.00100   219  220    0    303
   221   7.50000   5.00000  -4.75000   0.50000   90.00000   0.00000   0.00100     0  221  222    304
   222   7.50000   5.00000  -4.25000   0.50000   90.00000   0.00000   0.00100   221  222  223    304
   223   7.50000   5.00000  -3.75000   0.50000   90.00000   0.00000   0.00100   222  223  224    304
   224   7.50000   5.00000  -3.25000   0.50000   90.00000   0.00000   0.00100   223  224  225    304
   225   7.50000   5.00000  -2.75000   0.50000   90.00000   0.00000   0.00100   224  225  226    304
   226   7.50000   5.00000  -2.25000   0.50000   90.00000   0.00000   0.00100   225  226  227    304
   227   7.50000   5.00000  -1.75000   0.50000   90.00000   0.00000   0.00100   226  227  228    304
   228   7.50000   5.00000  -1.25000   0.50000   90.00000   0.00000   0.00100   227  228  229    304
   229   7.50000   5.00000  -0.75000   0.50000   90.00000   0.00000   0.00100   228  229  230    304
   230   7.50000   5.00000  -0.25000   0.50000   90.00000   0.00000   0.00100   229  230  231    304
   231   7.50000   5.00000   0.25000   0.50000   90.00000   0.00000   0.00100   230  231  232    304
   232   7.50000   5.00000   0.75000   0.50000   90.00000   0.00000   0.00100   231  232  233    304
   233   7.50000   5.00000   1.25000   0.50000   90.00000   0.00000   0.00100   232  233  234    304
   234   7.50000   5.00000   1.75000   0.50000   90.00000   0.00000   0.00100   233  234  235    304
   235   7.50000   5.00000   2.25000   0.50000   90.00000   0.00000   0.00100   234  235  236    304
   236   7.50000   5.00000   2.75000   0.50000   90.00000   0.00000   0.00100   235  236  237    304
   237   7.50000   5.00000   3.25000   0.50000   90.00000   0.00000   0.00100   236  237  238    304
   238   7.50000   5.00000   3.75000   0.50000   90.00000   0.00000   0.00100   237  238  239    304
   239   7.50000   5.00000   4.25000   0.50000   90.00000   0.00000   0.00100   238  239  240    304
   240   7.50000   5.00000   4.75000   0.50000   90.00000   0.00000   0.00100   239  240    0    304






 ***** DATA CARD NO.  1   GN  -1     0     0     0  1.00000E+01  1.00000E-02  0.00000E+00  0.00000E+00  0.00000E+00  0.00000E+00
 ***** DATA CARD NO.  2   FR   0     0     0     0  1.50000E+02  0.00000E+00  0.00000E+00  0.00000E+00  0.00000E+00  0.00000E+00
 ***** DATA CARD NO.  3   EX   0   101    10     0 -1.63980E+02  3.85370E+03  0.00000E+00  0.00000E+00  0.00000E+00  0.00000E+00
 ***** DATA CARD NO.  4   EX   0   102    10     0  1.85420E+03 -3.38780E+03  0.00000E+00  0.00000E+00  0.00000E+00  0.00000E+00
 ***** DATA CARD NO.  5   EX   0   103    10     0 -3.06620E+03  2.36290E+03  0.00000E+00  0.00000E+00  0.00000E+00  0.00000E+00
 ***** DATA CARD NO.  6   EX   0   104    10     0  3.74370E+03 -9.99270E+02  0.00000E+00  0.00000E+00  0.00000E+00  0.00000E+00
 ***** DATA CARD NO.  7   EX   0   201    10     0 -2.56230E+02  3.80600E+03  0.00000E+00  0.00000E+00  0.00000E+00  0.00000E+00
 ***** DATA CARD NO.  8   EX   0   202    10     0  2.08940E+03 -3.19420E+03  0.00000E+00  0.00000E+00  0.00000E+00  0.00000E+00
 ***** DATA CARD NO.  9   EX   0   203    10     0 -3.15410E+03  2.17070E+03  0.00000E+00  0.00000E+00  0.00000E+00  0.00000E+00
 ***** DATA CARD NO. 10   EX   0   204    10     0  3.75160E+03 -8.92160E+02  0.00000E+00  0.00000E+00  0.00000E+00  0.00000E+00
 ***** DATA CARD NO. 11   EX   0   301    10     0 -1.63950E+02  3.85380E+03  0.00000E+00  0.00000E+00  0.00000E+00  0.00000E+00
 ***** DATA CARD NO. 12   EX   0   302    10     0  2.59360E+03 -4.73990E+03  0.00000E+00  0.00000E+00  0.00000E+00  0.00000E+00
 ***** DATA CARD NO. 13   EX   0   303    10     0 -3.06670E+03  2.36250E+03  0.00000E+00  0.00000E+00  0.00000E+00  0.00000E+00
 ***** DATA CARD NO. 14   EX   0   304    10     0  3.74360E+03 -9.99250E+02  0.00000E+00  0.00000E+00  0.00000E+00  0.00000E+00
 ***** DATA CARD NO. 15   RP   0    19    72  1010  0.00000E+00  0.00000E+00  5.00000E+00  5.00000E+00  0.00000E+00  0.00000E+00




                                 - - - - - - FREQUENCY - - - - - -

                                    FREQUENCY= 1.5000E+02 MHZ
                                    WAVELENGTH= 1.9987E+00 METERS




                    APPROXIMATE INTEGRATION EMPLOYED FOR SEGMENTS MORE THAN   1.000 WAVELENGTHS APART



                               - - - STRUCTURE IMPEDANCE LOADING - - -

                                   THIS STRUCTURE IS NOT LOADED



                                  - - - ANTENNA ENVIRONMENT - - -

                                            FREE SPACE



                                - - - MATRIX TIMING - - -

                        FILL=    0.031 SEC.,  FACTOR=    0.016 SEC.



                                          - - - ANTENNA INPUT PARAMETERS - - -

   TAG   SEG.    VOLTAGE (VOLTS)         CURRENT (AMPS)         IMPEDANCE (OHMS)        ADMITTANCE (MHOS)      POWER
   NO.   NO.    REAL        IMAG.       REAL        IMAG.       REAL        IMAG.       REAL        IMAG.     (WATTS)
   101    10-1.63980E+02 3.85370E+03 5.08739E+00 1.13977E+01 2.76585E+02 1.37841E+02 2.89619E-03-1.44337E-03 2.15446E+04
   102    30 1.85420E+03-3.38780E+03 4.35949E-01-1.24184E+01 2.77704E+02 1.39562E+02 2.87487E-03-1.44478E-03 2.14397E+04
   103    50-3.06620E+03 2.36290E+03-5.37109E+00 1.10694E+01 2.81574E+02 1.40373E+02 2.84451E-03-1.41807E-03 2.13124E+04
   104    70 3.74370E+03-9.99270E+02 9.47807E+00-7.81557E+00 2.86866E+02 1.31118E+02 2.88354E-03-1.31798E-03 2.16465E+04
   201    90-2.56230E+02 3.80600E+03 5.17428E+00 1.10695E+01 2.73294E+02 1.50895E+02 2.80419E-03-1.54829E-03 2.04023E+04
   202   110 2.08940E+03-3.19420E+03 7.57815E-01-1.16754E+01 2.84002E+02 1.60523E+02 2.66857E-03-1.50832E-03 1.94385E+04
   203   130-3.15410E+03 2.17070E+03-4.71943E+00 1.04837E+01 2.84780E+02 1.72659E+02 2.56765E-03-1.55674E-03 1.88213E+04
   204   150 3.75160E+03-8.92160E+02 9.04223E+00-7.57206E+00 2.92444E+02 1.46229E+02 2.73551E-03-1.36783E-03 2.03392E+04
   301   170-1.63950E+02 3.85380E+03 5.15413E+00 1.14701E+01 2.74198E+02 1.37505E+02 2.91414E-03-1.46139E-03 2.16793E+04
   302   190 2.59360E+03-4.73990E+03 7.39804E-01-1.74108E+01 2.78066E+02 1.37149E+02 2.89258E-03-1.42670E-03 4.22222E+04
   303   210-3.06670E+03 2.36250E+03-5.30893E+00 1.11449E+01 2.79609E+02 1.41973E+02 2.84337E-03-1.44373E-03 2.13054E+04
   304   230 3.74360E+03-9.99250E+02 9.51295E+00-7.88666E+00 2.84837E+02 1.31102E+02 2.89704E-03-1.33342E-03 2.17467E+04



                             - - - CURRENTS AND LOCATION - - -

                                 DISTANCES IN WAVELENGTHS


  SEG.  TAG    COORD. OF SEG. CENTER     SEG.            - - - CURRENT (AMPS) - - -
  NO.   NO.     X        Y        Z      LENGTH     REAL        IMAG.       MAG.        PHASE
     1  101  -3.7525  -2.5017  -2.3766  0.25017   6.9072E+00  1.0831E+01  1.2846E+01   57.474
     2  101  -3.7525  -2.5017  -2.1264  0.25017   4.7740E+00  1.0091E+01  1.1163E+01   64.681
     3  101  -3.7525  -2.5017  -1.8763  0.25017  -7.5862E+00 -1.0595E+01  1.3031E+01 -125.603
     4  101  -3.7525  -2.5017  -1.6261  0.25017  -4.3731E+00 -1.0194E+01  1.1093E+01 -113.218
     5  101  -3.7525  -2.5017  -1.3759  0.25017   7.6193E+00  1.0257E+01  1.2777E+01   53.393
     6  101  -3.7525  -2.5017  -1.1258  0.25017   3.6607E+00  1.0102E+01  1.0745E+01   70.081
     7  101  -3.7525  -2.5017  -0.8756  0.25017  -8.4054E+00 -1.0274E+01  1.3275E+01 -129.286
     8  101  -3.7525  -2.5017  -0.6254  0.25017  -3.9288E+00 -1.0201E+01  1.0931E+01 -111.064
     9  101  -3.7525  -2.5017  -0.3753  0.25017   8.2746E+00  1.0592E+01  1.3441E+01   52.001
    10  101  -3.7525  -2.5017  -0.1251  0.25017   5.0874E+00  1.1398E+01  1.2482E+01   65.946
    11  101  -3.7525  -2.5017   0.1251  0.25017   6.3851E-01 -8.8251E+00  8.8482E+00  -85.862
    12  101  -3.7525  -2.5017   0.3753  0.25017  -3.2612E+00 -1.0671E+01  1.1158E+01 -106.994
    13  101  -3.7525  -2.5017   0.6254  0.25017  -1.7016E-01  8.5927E+00  8.5944E+00   91.134
    14  101  -3.7525  -2.5017   0.8756  0.25017   3.3269E+00  1.0178E+01  1.0708E+01   71.899
    15  101  -3.7525  -2.5017   1.1258  0.25017  -2.3659E-02 -8.7882E+00  8.7882E+00  -90.154
    16  101  -3.7525  -2.5017   1.3759  0.25017  -3.2341E+00 -9.9816E+00  1.0492E+01 -107.952
    17  101  -3.7525  -2.5017   1.6261  0.25017   1.6240E-01  9.2703E+00  9.2717E+00   88.996
    18  101  -3.7525  -2.5017   1.8763  0.25017   2.9076E+00  1.0542E+01  1.0936E+01   74.581
    19  101  -3.7525  -2.5017   2.1264  0.25017  -5.3523E-01 -8.9505E+00  8.9665E+00  -93.422
    20  101  -3.7525  -2.5017   2.3766  0.25017  -2.1627E+00 -1.0226E+01  1.0452E+01 -101.942
    21  102  -1.2508  -2.5017  -2.3766  0.25017  -1.4729E+00 -1.2778E+01  1.2862E+01  -96.575
    22  102  -1.2508  -2.5017  -2.1264  0.25017   2.6838E-01 -1.0927E+01  1.0930E+01  -88.593
    23  102  -1.2508  -2.5017  -1.8763  0.25017   2.3665E+00  1.3209E+01  1.3420E+01   79.843
    24  102  -1.2508  -2.5017  -1.6261  0.25017  -5.0356E-01  1.1113E+01  1.1124E+01   92.594
    25  102  -1.2508  -2.5017  -1.3759  0.25017  -2.3457E+00 -1.2845E+01  1.3057E+01 -100.349
    26  102  -1.2508  -2.5017  -1.1258  0.25017   1.3427E+00 -1.0880E+01  1.0962E+01  -82.965
    27  102  -1.2508  -2.5017  -0.8756  0.25017   3.2544E+00  1.2890E+01  1.3294E+01   75.830
    28  102  -1.2508  -2.5017  -0.6254  0.25017  -1.0807E+00  1.0756E+01  1.0810E+01   95.737
    29  102  -1.2508  -2.5017  -0.3753  0.25017  -3.1056E+00 -1.3348E+01  1.3704E+01 -103.098
    30  102  -1.2508  -2.5017  -0.1251  0.25017   4.3595E-01 -1.2418E+01  1.2426E+01  -87.989
    31  102  -1.2508  -2.5017   0.1251  0.25017  -4.0474E+00  7.9005E+00  8.8769E+00  117.126
    32  102  -1.2508  -2.5017   0.3753  0.25017  -1.3890E+00  1.1157E+01  1.1243E+01   97.097
    33  102  -1.2508  -2.5017   0.6254  0.25017   4.0453E+00 -7.6690E+00  8.6705E+00  -62.189
    34  102  -1.2508  -2.5017   0.8756  0.25017   1.5410E+00 -1.0560E+01  1.0672E+01  -81.697
    35  102  -1.2508  -2.5017   1.1258  0.25017  -3.7755E+00  8.0060E+00  8.8516E+00  115.248
    36  102  -1.2508  -2.5017   1.3759  0.25017  -1.6013E+00  1.0255E+01  1.0379E+01   98.875
    37  102  -1.2508  -2.5017   1.6261  0.25017   3.6174E+00 -8.7618E+00  9.4792E+00  -67.566
    38  102  -1.2508  -2.5017   1.8763  0.25017   1.7688E+00 -1.0945E+01  1.1087E+01  -80.820
    39  102  -1.2508  -2.5017   2.1264  0.25017  -3.5493E+00  8.4144E+00  9.1323E+00  112.871
    40  102  -1.2508  -2.5017   2.3766  0.25017  -2.5847E+00  1.0281E+01  1.0600E+01  104.113
    41  103   1.2508  -2.5017  -2.3766  0.25017  -3.7116E+00  1.2145E+01  1.2700E+01  106.993
    42  103   1.2508  -2.5017  -2.1264  0.25017  -4.5762E+00  9.7469E+00  1.0768E+01  115.150
    43  103   1.2508  -2.5017  -1.8763  0.25017   3.0335E+00 -1.2919E+01  1.3271E+01  -76.786
    44  103   1.2508  -2.5017  -1.6261  0.25017   4.7870E+00 -9.8423E+00  1.0945E+01  -64.063
    45  103   1.2508  -2.5017  -1.3759  0.25017  -3.0305E+00  1.2561E+01  1.2921E+01  103.564
    46  103   1.2508  -2.5017  -1.1258  0.25017  -5.6198E+00  9.2772E+00  1.0847E+01  121.206
    47  103   1.2508  -2.5017  -0.8756  0.25017   2.0242E+00 -1.2973E+01  1.3130E+01  -81.132
    48  103   1.2508  -2.5017  -0.6254  0.25017   5.1048E+00 -9.2564E+00  1.0571E+01  -61.124
    49  103   1.2508  -2.5017  -0.3753  0.25017  -2.5771E+00  1.3364E+01  1.3610E+01  100.915
    50  103   1.2508  -2.5017  -0.1251  0.25017  -5.3711E+00  1.1069E+01  1.2304E+01  115.884
    51  103   1.2508  -2.5017   0.1251  0.25017   6.8469E+00 -5.4890E+00  8.7755E+00  -38.718
    52  103   1.2508  -2.5017   0.3753  0.25017   5.7317E+00 -9.5765E+00  1.1161E+01  -59.099
    53  103   1.2508  -2.5017   0.6254  0.25017  -6.6916E+00  5.2082E+00  8.4795E+00  142.106
    54  103   1.2508  -2.5017   0.8756  0.25017  -5.5584E+00  8.9224E+00  1.0512E+01  121.922
    55  103   1.2508  -2.5017   1.1258  0.25017   6.6175E+00 -5.6126E+00  8.6771E+00  -40.302
    56  103   1.2508  -2.5017   1.3759  0.25017   5.4853E+00 -8.5389E+00  1.0149E+01  -57.284
    57  103   1.2508  -2.5017   1.6261  0.25017  -6.7984E+00  6.5020E+00  9.4072E+00  136.277
    58  103   1.2508  -2.5017   1.8763  0.25017  -5.9255E+00  9.2729E+00  1.1004E+01  122.579
    59  103   1.2508  -2.5017   2.1264  0.25017   6.6067E+00 -6.0296E+00  8.9445E+00  -42.385
    60  103   1.2508  -2.5017   2.3766  0.25017   6.4347E+00 -8.1843E+00  1.0411E+01  -51.825
    61  104   3.7525  -2.5017  -2.3766  0.25017   8.3952E+00 -9.3524E+00  1.2568E+01  -48.087
    62  104   3.7525  -2.5017  -2.1264  0.25017   8.4699E+00 -6.8812E+00  1.0913E+01  -39.091
    63  104   3.7525  -2.5017  -1.8763  0.25017  -7.7828E+00  1.0293E+01  1.2904E+01  127.094
    64  104   3.7525  -2.5017  -1.6261  0.25017  -8.5335E+00  6.7673E+00  1.0891E+01  141.585
    65  104   3.7525  -2.5017  -1.3759  0.25017   7.5814E+00 -1.0268E+01  1.2764E+01  -53.561
    66  104   3.7525  -2.5017  -1.1258  0.25017   8.8039E+00 -6.4133E+00  1.0892E+01  -36.072
    67  104   3.7525  -2.5017  -0.8756  0.25017  -7.1905E+00  1.0478E+01  1.2708E+01  124.460
    68  104   3.7525  -2.5017  -0.6254  0.25017  -8.6758E+00  6.1404E+00  1.0629E+01  144.711
    69  104   3.7525  -2.5017  -0.3753  0.25017   7.5814E+00 -1.0864E+01  1.3248E+01  -55.092
    70  104   3.7525  -2.5017  -0.1251  0.25017   9.4781E+00 -7.8156E+00  1.2285E+01  -39.509
    71  104   3.7525  -2.5017   0.1251  0.25017  -8.4606E+00  1.7871E+00  8.6473E+00  168.073
    72  104   3.7525  -2.5017   0.3753  0.25017  -9.0564E+00  5.9978E+00  1.0862E+01  146.485
    73  104   3.7525  -2.5017   0.6254  0.25017   8.4405E+00 -1.9200E+00  8.6561E+00  -12.815
    74  104   3.7525  -2.5017   0.8756  0.25017   8.8170E+00 -5.6370E+00  1.0465E+01  -32.592
    75  104   3.7525  -2.5017   1.1258  0.25017  -8.4717E+00  2.3752E+00  8.7984E+00  164.338
    76  104   3.7525  -2.5017   1.3759  0.25017  -8.6906E+00  5.5238E+00  1.0298E+01  147.560
    77  104   3.7525  -2.5017   1.6261  0.25017   8.7223E+00 -2.8511E+00  9.1765E+00  -18.101
    78  104   3.7525  -2.5017   1.8763  0.25017   8.9863E+00 -5.7463E+00  1.0666E+01  -32.597
    79  104   3.7525  -2.5017   2.1264  0.25017  -8.7605E+00  2.7362E+00  9.1778E+00  162.655
    80  104   3.7525  -2.5017   2.3766  0.25017  -9.3144E+00  4.7049E+00  1.0435E+01  153.201
    81  201  -3.7525   0.0000  -2.3766  0.25017   7.1265E+00  1.0450E+01  1.2649E+01   55.708
    82  201  -3.7525   0.0000  -2.1264  0.25017   5.1750E+00  9.8647E+00  1.1140E+01   62.318
    83  201  -3.7525   0.0000  -1.8763  0.25017  -7.5102E+00 -9.8930E+00  1.2421E+01 -127.204
    84  201  -3.7525   0.0000  -1.6261  0.25017  -4.6592E+00 -9.5581E+00  1.0633E+01 -115.987
    85  201  -3.7525   0.0000  -1.3759  0.25017   7.4736E+00  9.7800E+00  1.2309E+01   52.614
    86  201  -3.7525   0.0000  -1.1258  0.25017   3.9367E+00  9.3391E+00  1.0135E+01   67.143
    87  201  -3.7525   0.0000  -0.8756  0.25017  -8.0245E+00 -1.0121E+01  1.2916E+01 -128.409
    88  201  -3.7525   0.0000  -0.6254  0.25017  -3.7942E+00 -9.6438E+00  1.0363E+01 -111.476
    89  201  -3.7525   0.0000  -0.3753  0.25017   8.2768E+00  1.0494E+01  1.3365E+01   51.736
    90  201  -3.7525   0.0000  -0.1251  0.25017   5.1743E+00  1.1069E+01  1.2219E+01   64.947
    91  201  -3.7525   0.0000   0.1251  0.25017   6.3892E-01 -8.3988E+00  8.4231E+00  -85.650
    92  201  -3.7525   0.0000   0.3753  0.25017  -3.3419E+00 -1.0361E+01  1.0886E+01 -107.878
    93  201  -3.7525   0.0000   0.6254  0.25017  -2.4884E-01  8.0769E+00  8.0807E+00   91.765
    94  201  -3.7525   0.0000   0.8756  0.25017   3.2495E+00  9.9367E+00  1.0455E+01   71.891
    95  201  -3.7525   0.0000   1.1258  0.25017  -4.8611E-02 -8.0236E+00  8.0237E+00  -90.347
    96  201  -3.7525   0.0000   1.3759  0.25017  -3.0665E+00 -9.5451E+00  1.0026E+01 -107.810
    97  201  -3.7525   0.0000   1.6261  0.25017   4.2433E-01  8.3714E+00  8.3821E+00   87.098
    98  201  -3.7525   0.0000   1.8763  0.25017   2.8844E+00  9.6449E+00  1.0067E+01   73.350
    99  201  -3.7525   0.0000   2.1264  0.25017  -9.1609E-01 -8.5417E+00  8.5907E+00  -96.122
   100  201  -3.7525   0.0000   2.3766  0.25017  -2.4086E+00 -9.6316E+00  9.9282E+00 -104.040
   101  202  -1.2508   0.0000  -2.3766  0.25017  -1.3217E+00 -1.2047E+01  1.2119E+01  -96.261
   102  202  -1.2508   0.0000  -2.1264  0.25017   1.9361E-01 -1.0386E+01  1.0388E+01  -88.932
   103  202  -1.2508   0.0000  -1.8763  0.25017   1.9605E+00  1.2055E+01  1.2213E+01   80.762
   104  202  -1.2508   0.0000  -1.6261  0.25017  -4.3427E-01  9.9890E+00  9.9984E+00   92.489
   105  202  -1.2508   0.0000  -1.3759  0.25017  -1.8146E+00 -1.2079E+01  1.2214E+01  -98.544
   106  202  -1.2508   0.0000  -1.1258  0.25017   1.1818E+00 -9.7647E+00  9.8360E+00  -83.099
   107  202  -1.2508   0.0000  -0.8756  0.25017   2.2651E+00  1.2274E+01  1.2481E+01   79.544
   108  202  -1.2508   0.0000  -0.6254  0.25017  -1.5327E+00  9.6204E+00  9.7417E+00   99.052
   109  202  -1.2508   0.0000  -0.3753  0.25017  -2.5801E+00 -1.2987E+01  1.3240E+01 -101.237
   110  202  -1.2508   0.0000  -0.1251  0.25017   7.5781E-01 -1.1675E+01  1.1700E+01  -86.286
   111  202  -1.2508   0.0000   0.1251  0.25017  -4.1527E+00  6.8212E+00  7.9859E+00  121.333
   112  202  -1.2508   0.0000   0.3753  0.25017  -1.5977E+00  1.0322E+01  1.0445E+01   98.799
   113  202  -1.2508   0.0000   0.6254  0.25017   4.2750E+00 -6.5530E+00  7.8242E+00  -56.881
   114  202  -1.2508   0.0000   0.8756  0.25017   1.9712E+00 -9.8141E+00  1.0010E+01  -78.643
   115  202  -1.2508   0.0000   1.1258  0.25017  -3.8265E+00  6.6438E+00  7.6670E+00  119.940
   116  202  -1.2508   0.0000   1.3759  0.25017  -2.1140E+00  9.3226E+00  9.5593E+00  102.777
   117  202  -1.2508   0.0000   1.6261  0.25017   3.2893E+00 -7.2015E+00  7.9172E+00  -65.452
   118  202  -1.2508   0.0000   1.8763  0.25017   1.8897E+00 -9.3910E+00  9.5793E+00  -78.623
   119  202  -1.2508   0.0000   2.1264  0.25017  -3.2991E+00  7.5324E+00  8.2232E+00  113.653
   120  202  -1.2508   0.0000   2.3766  0.25017  -2.4911E+00  9.1428E+00  9.4761E+00  105.241
   121  203   1.2508   0.0000  -2.3766  0.25017  -2.8170E+00  1.1650E+01  1.1986E+01  103.593
   122  203   1.2508   0.0000  -2.1264  0.25017  -3.4984E+00  9.4631E+00  1.0089E+01  110.289
   123  203   1.2508   0.0000  -1.8763  0.25017   2.4678E+00 -1.2004E+01  1.2255E+01  -78.383
   124  203   1.2508   0.0000  -1.6261  0.25017   3.7403E+00 -9.1064E+00  9.8446E+00  -67.670
   125  203   1.2508   0.0000  -1.3759  0.25017  -2.6480E+00  1.1843E+01  1.2136E+01  102.603
   126  203   1.2508   0.0000  -1.1258  0.25017  -4.5822E+00  8.3985E+00  9.5672E+00  118.617
   127  203   1.2508   0.0000  -0.8756  0.25017   1.9860E+00 -1.2536E+01  1.2692E+01  -80.998
   128  203   1.2508   0.0000  -0.6254  0.25017   4.5741E+00 -8.5367E+00  9.6849E+00  -61.817
   129  203   1.2508   0.0000  -0.3753  0.25017  -2.1412E+00  1.2959E+01  1.3134E+01   99.382
   130  203   1.2508   0.0000  -0.1251  0.25017  -4.7194E+00  1.0484E+01  1.1497E+01  114.236
   131  203   1.2508   0.0000   0.1251  0.25017   6.0175E+00 -4.8561E+00  7.7325E+00  -38.904
   132  203   1.2508   0.0000   0.3753  0.25017   4.9831E+00 -9.0395E+00  1.0322E+01  -61.134
   133  203   1.2508   0.0000   0.6254  0.25017  -5.9980E+00  4.5113E+00  7.5052E+00  143.052
   134  203   1.2508   0.0000   0.8756  0.25017  -5.0653E+00  8.4875E+00  9.8841E+00  120.829
   135  203   1.2508   0.0000   1.1258  0.25017   5.7010E+00 -4.6458E+00  7.3542E+00  -39.177
   136  203   1.2508   0.0000   1.3759  0.25017   5.0357E+00 -7.8787E+00  9.3505E+00  -57.415
   137  203   1.2508   0.0000   1.6261  0.25017  -5.5327E+00  5.4341E+00  7.7551E+00  135.515
   138  203   1.2508   0.0000   1.8763  0.25017  -5.1432E+00  8.1212E+00  9.6129E+00  122.346
   139  203   1.2508   0.0000   2.1264  0.25017   5.2741E+00 -5.5849E+00  7.6816E+00  -46.640
   140  203   1.2508   0.0000   2.3766  0.25017   5.2586E+00 -7.4907E+00  9.1522E+00  -54.931
   141  204   3.7525   0.0000  -2.3766  0.25017   7.8384E+00 -9.1551E+00  1.2052E+01  -49.431
   142  204   3.7525   0.0000  -2.1264  0.25017   7.9377E+00 -6.9234E+00  1.0533E+01  -41.095
   143  204   3.7525   0.0000  -1.8763  0.25017  -7.2259E+00  9.6825E+00  1.2082E+01  126.733
   144  204   3.7525   0.0000  -1.6261  0.25017  -7.8683E+00  6.4029E+00  1.0144E+01  140.863
   145  204   3.7525   0.0000  -1.3759  0.25017   7.1493E+00 -9.9160E+00  1.2225E+01  -54.209
   146  204   3.7525   0.0000  -1.1258  0.25017   7.9963E+00 -6.1614E+00  1.0095E+01  -37.615
   147  204   3.7525   0.0000  -0.8756  0.25017  -7.2092E+00  1.0045E+01  1.2365E+01  125.666
   148  204   3.7525   0.0000  -0.6254  0.25017  -8.4185E+00  5.7697E+00  1.0206E+01  145.575
   149  204   3.7525   0.0000  -0.3753  0.25017   7.1755E+00 -1.0571E+01  1.2777E+01  -55.833
   150  204   3.7525   0.0000  -0.1251  0.25017   9.0422E+00 -7.5721E+00  1.1794E+01  -39.943
   151  204   3.7525   0.0000   0.1251  0.25017  -7.8538E+00  1.3616E+00  7.9709E+00  170.165
   152  204   3.7525   0.0000   0.3753  0.25017  -8.5074E+00  5.6229E+00  1.0198E+01  146.538
   153  204   3.7525   0.0000   0.6254  0.25017   8.0179E+00 -1.6455E+00  8.1850E+00  -11.598
   154  204   3.7525   0.0000   0.8756  0.25017   8.5300E+00 -5.4286E+00  1.0111E+01  -32.473
   155  204   3.7525   0.0000   1.1258  0.25017  -7.8489E+00  1.9471E+00  8.0868E+00  166.068
   156  204   3.7525   0.0000   1.3759  0.25017  -8.4649E+00  5.2597E+00  9.9659E+00  148.145
   157  204   3.7525   0.0000   1.6261  0.25017   7.7158E+00 -2.2452E+00  8.0358E+00  -16.224
   158  204   3.7525   0.0000   1.8763  0.25017   8.2887E+00 -5.0115E+00  9.6859E+00  -31.158
   159  204   3.7525   0.0000   2.1264  0.25017  -7.9704E+00  2.7485E+00  8.4310E+00  160.974
   160  204   3.7525   0.0000   2.3766  0.25017  -8.5413E+00  4.4781E+00  9.6440E+00  152.332
   161  301  -3.7525   2.5017  -2.3766  0.25017   6.9738E+00  1.0928E+01  1.2964E+01   57.456
   162  301  -3.7525   2.5017  -2.1264  0.25017   4.8381E+00  1.0131E+01  1.1227E+01   64.473
   163  301  -3.7525   2.5017  -1.8763  0.25017  -7.6207E+00 -1.0750E+01  1.3177E+01 -125.332
   164  301  -3.7525   2.5017  -1.6261  0.25017  -4.3973E+00 -1.0269E+01  1.1171E+01 -113.181
   165  301  -3.7525   2.5017  -1.3759  0.25017   7.6562E+00  1.0415E+01  1.2926E+01   53.679
   166  301  -3.7525   2.5017  -1.1258  0.25017   3.6329E+00  1.0207E+01  1.0835E+01   70.409
   167  301  -3.7525   2.5017  -0.8756  0.25017  -8.5085E+00 -1.0409E+01  1.3444E+01 -129.264
   168  301  -3.7525   2.5017  -0.6254  0.25017  -3.9152E+00 -1.0313E+01  1.1031E+01 -110.789
   169  301  -3.7525   2.5017  -0.3753  0.25017   8.4373E+00  1.0695E+01  1.3622E+01   51.729
   170  301  -3.7525   2.5017  -0.1251  0.25017   5.1541E+00  1.1470E+01  1.2575E+01   65.803
   171  301  -3.7525   2.5017   0.1251  0.25017   4.9597E-01 -8.9680E+00  8.9817E+00  -86.835
   172  301  -3.7525   2.5017   0.3753  0.25017  -3.3988E+00 -1.0774E+01  1.1297E+01 -107.508
   173  301  -3.7525   2.5017   0.6254  0.25017  -1.3973E-01  8.7258E+00  8.7269E+00   90.917
   174  301  -3.7525   2.5017   0.8756  0.25017   3.3923E+00  1.0290E+01  1.0835E+01   71.754
   175  301  -3.7525   2.5017   1.1258  0.25017  -4.8813E-02 -8.9127E+00  8.9128E+00  -90.314
   176  301  -3.7525   2.5017   1.3759  0.25017  -3.2470E+00 -1.0093E+01  1.0602E+01 -107.833
   177  301  -3.7525   2.5017   1.6261  0.25017   2.3453E-01  9.4013E+00  9.4042E+00   88.571
   178  301  -3.7525   2.5017   1.8763  0.25017   2.9396E+00  1.0670E+01  1.1068E+01   74.597
   179  301  -3.7525   2.5017   2.1264  0.25017  -6.1022E-01 -9.0768E+00  9.0973E+00  -93.846
   180  301  -3.7525   2.5017   2.3766  0.25017  -2.2151E+00 -1.0365E+01  1.0599E+01 -102.064
   181  302  -1.2508   2.5017  -2.3766  0.25017  -1.8953E+00 -1.7872E+01  1.7973E+01  -96.053
   182  302  -1.2508   2.5017  -2.1264  0.25017   5.3561E-01 -1.5423E+01  1.5432E+01  -88.011
   183  302  -1.2508   2.5017  -1.8763  0.25017   3.1330E+00  1.8268E+01  1.8535E+01   80.268
   184  302  -1.2508   2.5017  -1.6261  0.25017  -9.3028E-01  1.5466E+01  1.5494E+01   93.442
   185  302  -1.2508   2.5017  -1.3759  0.25017  -3.2565E+00 -1.7934E+01  1.8227E+01 -100.292
   186  302  -1.2508   2.5017  -1.1258  0.25017   1.8598E+00 -1.5230E+01  1.5343E+01  -83.038
   187  302  -1.2508   2.5017  -0.8756  0.25017   4.2289E+00  1.7992E+01  1.8482E+01   76.773
   188  302  -1.2508   2.5017  -0.6254  0.25017  -1.7803E+00  1.5112E+01  1.5217E+01   96.719
   189  302  -1.2508   2.5017  -0.3753  0.25017  -4.2405E+00 -1.8559E+01  1.9037E+01 -102.871
   190  302  -1.2508   2.5017  -0.1251  0.25017   7.3980E-01 -1.7411E+01  1.7427E+01  -87.567
   191  302  -1.2508   2.5017   0.1251  0.25017  -5.8492E+00  1.0853E+01  1.2329E+01  118.323
   192  302  -1.2508   2.5017   0.3753  0.25017  -2.1308E+00  1.5436E+01  1.5582E+01   97.860
   193  302  -1.2508   2.5017   0.6254  0.25017   5.7987E+00 -1.0793E+01  1.2252E+01  -61.751
   194  302  -1.2508   2.5017   0.8756  0.25017   2.3047E+00 -1.4810E+01  1.4989E+01  -81.155
   195  302  -1.2508   2.5017   1.1258  0.25017  -5.4571E+00  1.1191E+01  1.2451E+01  115.995
   196  302  -1.2508   2.5017   1.3759  0.25017  -2.4315E+00  1.4484E+01  1.4687E+01   99.529
   197  302  -1.2508   2.5017   1.6261  0.25017   5.1972E+00 -1.1983E+01  1.3061E+01  -66.552
   198  302  -1.2508   2.5017   1.8763  0.25017   2.6632E+00 -1.5087E+01  1.5320E+01  -79.989
   199  302  -1.2508   2.5017   2.1264  0.25017  -5.0519E+00  1.1833E+01  1.2867E+01  113.118
   200  302  -1.2508   2.5017   2.3766  0.25017  -3.7357E+00  1.4369E+01  1.4846E+01  104.574
   201  303   1.2508   2.5017  -2.3766  0.25017  -3.6513E+00  1.2245E+01  1.2778E+01  106.604
   202  303   1.2508   2.5017  -2.1264  0.25017  -4.5181E+00  9.7895E+00  1.0782E+01  114.775
   203  303   1.2508   2.5017  -1.8763  0.25017   3.0045E+00 -1.3078E+01  1.3418E+01  -77.061
   204  303   1.2508   2.5017  -1.6261  0.25017   4.7681E+00 -9.9194E+00  1.1006E+01  -64.327
   205  303   1.2508   2.5017  -1.3759  0.25017  -2.9997E+00  1.2722E+01  1.3071E+01  103.267
   206  303   1.2508   2.5017  -1.1258  0.25017  -5.6539E+00  9.3850E+00  1.0956E+01  121.066
   207  303   1.2508   2.5017  -0.8756  0.25017   1.9265E+00 -1.3111E+01  1.3251E+01  -81.641
   208  303   1.2508   2.5017  -0.6254  0.25017   5.1252E+00 -9.3701E+00  1.0680E+01  -61.323
   209  303   1.2508   2.5017  -0.3753  0.25017  -2.4174E+00  1.3472E+01  1.3687E+01  100.173
   210  303   1.2508   2.5017  -0.1251  0.25017  -5.3089E+00  1.1145E+01  1.2345E+01  115.471
   211  303   1.2508   2.5017   0.1251  0.25017   6.7068E+00 -5.6346E+00  8.7596E+00  -40.035
   212  303   1.2508   2.5017   0.3753  0.25017   5.5966E+00 -9.6835E+00  1.1184E+01  -59.974
   213  303   1.2508   2.5017   0.6254  0.25017  -6.6669E+00  5.3425E+00  8.5434E+00  141.293
   214  303   1.2508   2.5017   0.8756  0.25017  -5.4981E+00  9.0368E+00  1.0578E+01  121.317
   215  303   1.2508   2.5017   1.1258  0.25017   6.5976E+00 -5.7393E+00  8.7446E+00  -41.020
   216  303   1.2508   2.5017   1.3759  0.25017   5.4785E+00 -8.6533E+00  1.0242E+01  -57.661
   217  303   1.2508   2.5017   1.6261  0.25017  -6.7303E+00  6.6348E+00  9.4508E+00  135.409
   218  303   1.2508   2.5017   1.8763  0.25017  -5.8990E+00  9.4033E+00  1.1100E+01  122.101
   219  303   1.2508   2.5017   2.1264  0.25017   6.5362E+00 -6.1585E+00  8.9804E+00  -43.296
   220  303   1.2508   2.5017   2.3766  0.25017   6.3878E+00 -8.3262E+00  1.0494E+01  -52.505
   221  304   3.7525   2.5017  -2.3766  0.25017   8.4417E+00 -9.4435E+00  1.2667E+01  -48.206
   222  304   3.7525   2.5017  -2.1264  0.25017   8.5170E+00 -6.9627E+00  1.1001E+01  -39.266
   223  304   3.7525   2.5017  -1.8763  0.25017  -7.8133E+00  1.0389E+01  1.2999E+01  126.945
   224  304   3.7525   2.5017  -1.6261  0.25017  -8.5707E+00  6.8689E+00  1.0984E+01  141.290
   225  304   3.7525   2.5017  -1.3759  0.25017   7.6077E+00 -1.0333E+01  1.2832E+01  -53.639
   226  304   3.7525   2.5017  -1.1258  0.25017   8.8308E+00 -6.4908E+00  1.0960E+01  -36.317
   227  304   3.7525   2.5017  -0.8756  0.25017  -7.2231E+00  1.0548E+01  1.2784E+01  124.403
   228  304   3.7525   2.5017  -0.6254  0.25017  -8.7002E+00  6.2093E+00  1.0689E+01  144.485
   229  304   3.7525   2.5017  -0.3753  0.25017   7.6243E+00 -1.0945E+01  1.3338E+01  -55.138
   230  304   3.7525   2.5017  -0.1251  0.25017   9.5129E+00 -7.8867E+00  1.2357E+01  -39.660
   231  304   3.7525   2.5017   0.1251  0.25017  -8.5027E+00  1.8746E+00  8.7069E+00  167.567
   232  304   3.7525   2.5017   0.3753  0.25017  -9.1030E+00  6.0850E+00  1.0949E+01  146.239
   233  304   3.7525   2.5017   0.6254  0.25017   8.4682E+00 -1.9822E+00  8.6971E+00  -13.174
   234  304   3.7525   2.5017   0.8756  0.25017   8.8604E+00 -5.6944E+00  1.0532E+01  -32.728
   235  304   3.7525   2.5017   1.1258  0.25017  -8.4861E+00  2.4582E+00  8.8350E+00  163.845
   236  304   3.7525   2.5017   1.3759  0.25017  -8.7100E+00  5.5774E+00  1.0343E+01  147.367
   237  304   3.7525   2.5017   1.6261  0.25017   8.7583E+00 -2.9646E+00  9.2464E+00  -18.701
   238  304   3.7525   2.5017   1.8763  0.25017   9.0104E+00 -5.8379E+00  1.0736E+01  -32.940
   239  304   3.7525   2.5017   2.1264  0.25017  -8.8141E+00  2.8294E+00  9.2571E+00  162.203
   240  304   3.7525   2.5017   2.3766  0.25017  -9.3634E+00  4.7989E+00  1.0522E+01  152.864



                                        - - - POWER BUDGET - - -

                                           INPUT POWER   = 2.7190E+05 WATTS
                                           RADIATED POWER= 2.7190E+05 WATTS
                                           STRUCTURE LOSS= 0.0000E+00 WATTS
                                           NETWORK LOSS  = 0.0000E+00 WATTS
                                           EFFICIENCY    = 100.00 PERCENT



                                                - - - RADIATION PATTERNS - - -

  - - ANGLES - -       - DIRECTIVE GAINS -       - - - POLARIZATION - - -    - - - E(THETA) - - -    - - - E(PHI) - - -
  THETA     PHI        VERT.   HOR.    TOTAL      AXIAL     TILT   SENSE     MAGNITUDE    PHASE      MAGNITUDE    PHASE 
 DEGREES  DEGREES       DB      DB      DB        RATIO     DEG.              VOLTS/M    DEGREES      VOLTS/M    DEGREES
    0.00     0.00    -999.99 -999.99 -999.99    0.00000     0.00            0.00000E+00     0.00    0.00000E+00     0.00
    5.00     0.00      -8.97 -999.99   -8.97    0.00000     0.00  LINEAR    1.43806E+03  -152.83    0.00000E+00     0.00
   10.00     0.00      11.49 -999.99   11.49    0.00000     0.00  LINEAR    1.51527E+04  -162.01    0.00000E+00     0.00
   15.00     0.00       0.61 -999.99    0.61    0.00000     0.00  LINEAR    4.33163E+03  -170.06    0.00000E+00     0.00
   20.00     0.00       2.63 -999.99    2.63    0.00000     0.00  LINEAR    5.46518E+03    26.35    0.00000E+00     0.00
   25.00     0.00       6.30 -999.99    6.30    0.00000     0.00  LINEAR    8.34256E+03  -168.86    0.00000E+00     0.00
   30.00     0.00       7.90 -999.99    7.90    0.00000     0.00  LINEAR    1.00315E+04    22.83    0.00000E+00     0.00
   35.00     0.00      11.81 -999.99   11.81    0.00000     0.00  LINEAR    1.57274E+04    19.16    0.00000E+00     0.00
   40.00     0.00     -22.81 -999.99  -22.81    0.00000     0.00  LINEAR    2.92076E+02    42.65    0.00000E+00     0.00
   45.00     0.00      -5.49 -999.99   -5.49    0.00000     0.00  LINEAR    2.14680E+03    25.88    0.00000E+00     0.00
   50.00     0.00     -22.01 -999.99  -22.01    0.00000     0.00  LINEAR    3.20318E+02    59.96    0.00000E+00     0.00
   55.00     0.00      -6.15 -999.99   -6.15    0.00000     0.00  LINEAR    1.98945E+03    16.93    0.00000E+00     0.00
   60.00     0.00     -13.28 -999.99  -13.28    0.00000     0.00  LINEAR    8.75655E+02    -0.43    0.00000E+00     0.00
   65.00     0.00       2.16 -999.99    2.16    0.00000     0.00  LINEAR    5.17583E+03  -151.28    0.00000E+00     0.00
   70.00     0.00      -2.40 -999.99   -2.40    0.00000     0.00  LINEAR    3.06311E+03    -4.58    0.00000E+00     0.00
   75.00     0.00       4.47 -999.99    4.47    0.00000     0.00  LINEAR    6.75653E+03    10.98    0.00000E+00     0.00
   80.00     0.00       2.14 -999.99    2.14    0.00000     0.00  LINEAR    5.16326E+03  -146.35    0.00000E+00     0.00
   85.00     0.00       9.78 -999.99    9.78    0.00000     0.00  LINEAR    1.24541E+04  -149.07    0.00000E+00     0.00
   90.00     0.00       2.10 -999.99    2.10    0.00000     0.00  LINEAR    5.14467E+03  -121.97    0.00000E+00     0.00
    0.00     5.00    -999.99 -999.99 -999.99    0.00000     0.00            0.00000E+00     0.00    0.00000E+00     0.00
    5.00     5.00      -9.30 -999.99   -9.30    0.00000     0.00  LINEAR    1.38376E+03  -151.63    0.00000E+00     0.00
   10.00     5.00      11.32 -999.99   11.32    0.00000     0.00  LINEAR    1.48592E+04  -161.52    0.00000E+00     0.00
   15.00     5.00       1.01 -999.99    1.01    0.00000     0.00  LINEAR    4.53620E+03  -166.50    0.00000E+00     0.00
   20.00     5.00       1.52 -999.99    1.52    0.00000     0.00  LINEAR    4.81017E+03    24.86    0.00000E+00     0.00
   25.00     5.00       5.91 -999.99    5.91    0.00000     0.00  LINEAR    7.96924E+03  -169.10    0.00000E+00     0.00
   30.00     5.00       5.45 -999.99    5.45    0.00000     0.00  LINEAR    7.56584E+03    26.80    0.00000E+00     0.00
   35.00     5.00       9.90 -999.99    9.90    0.00000     0.00  LINEAR    1.26194E+04    21.18    0.00000E+00     0.00
   40.00     5.00     -22.08 -999.99  -22.08    0.00000     0.00  LINEAR    3.17846E+02    41.14    0.00000E+00     0.00
   45.00     5.00     -10.17 -999.99  -10.17    0.00000     0.00  LINEAR    1.25173E+03    18.46    0.00000E+00     0.00
   50.00     5.00     -30.65 -999.99  -30.65    0.00000     0.00  LINEAR    1.18488E+02    75.54    0.00000E+00     0.00
   55.00     5.00      -8.77 -999.99   -8.77    0.00000     0.00  LINEAR    1.47082E+03    17.66    0.00000E+00     0.00
   60.00     5.00      -9.53 -999.99   -9.53    0.00000     0.00  LINEAR    1.34831E+03     4.48    0.00000E+00     0.00
   65.00     5.00      -4.99 -999.99   -4.99    0.00000     0.00  LINEAR    2.27284E+03  -144.41    0.00000E+00     0.00
   70.00     5.00      -8.60 -999.99   -8.60    0.00000     0.00  LINEAR    1.49975E+03    -2.04    0.00000E+00     0.00
   75.00     5.00      -2.05 -999.99   -2.05    0.00000     0.00  LINEAR    3.18774E+03    14.24    0.00000E+00     0.00
   80.00     5.00      -4.03 -999.99   -4.03    0.00000     0.00  LINEAR    2.53821E+03  -143.98    0.00000E+00     0.00
   85.00     5.00       3.46 -999.99    3.46    0.00000     0.00  LINEAR    6.01429E+03  -145.31    0.00000E+00     0.00
   90.00     5.00      -3.98 -999.99   -3.98    0.00000     0.00  LINEAR    2.55334E+03  -118.11    0.00000E+00     0.00
    0.00    10.00    -999.99 -999.99 -999.99    0.00000     0.00            0.00000E+00     0.00    0.00000E+00     0.00
    5.00    10.00     -10.15 -999.99  -10.15    0.00000     0.00  LINEAR    1.25539E+03  -149.75    0.00000E+00     0.00
   10.00    10.00      10.79 -999.99   10.79    0.00000     0.00  LINEAR    1.39904E+04  -160.96    0.00000E+00     0.00
   15.00    10.00       1.47 -999.99    1.47    0.00000     0.00  LINEAR    4.78300E+03  -162.70    0.00000E+00     0.00
   20.00    10.00      -0.74 -999.99   -0.74    0.00000     0.00  LINEAR    3.70663E+03    21.13    0.00000E+00     0.00
   25.00    10.00       3.24 -999.99    3.24    0.00000     0.00  LINEAR    5.86094E+03  -168.03    0.00000E+00     0.00
   30.00    10.00      -3.37 -999.99   -3.37    0.00000     0.00  LINEAR    2.73847E+03    39.43    0.00000E+00     0.00
   35.00    10.00       2.08 -999.99    2.08    0.00000     0.00  LINEAR    5.13083E+03    27.74    0.00000E+00     0.00
   40.00    10.00     -20.37 -999.99  -20.37    0.00000     0.00  LINEAR    3.86706E+02    47.32    0.00000E+00     0.00
   45.00    10.00     -22.64 -999.99  -22.64    0.00000     0.00  LINEAR    2.97796E+02   -70.90    0.00000E+00     0.00
   50.00    10.00     -24.24 -999.99  -24.24    0.00000     0.00  LINEAR    2.47791E+02  -136.65    0.00000E+00     0.00
   55.00    10.00     -26.91 -999.99  -26.91    0.00000     0.00  LINEAR    1.82289E+02    59.85    0.00000E+00     0.00
   60.00    10.00     -30.35 -999.99  -30.35    0.00000     0.00  LINEAR    1.22644E+02    48.10    0.00000E+00     0.00
   65.00    10.00     -12.66 -999.99  -12.66    0.00000     0.00  LINEAR    9.40242E+02    21.07    0.00000E+00     0.00
   70.00    10.00     -16.14 -999.99  -16.14    0.00000     0.00  LINEAR    6.29685E+02  -169.87    0.00000E+00     0.00
   75.00    10.00      -6.43 -999.99   -6.43    0.00000     0.00  LINEAR    1.92626E+03  -167.14    0.00000E+00     0.00
   80.00    10.00      -8.81 -999.99   -8.81    0.00000     0.00  LINEAR    1.46367E+03    38.92    0.00000E+00     0.00
   85.00    10.00      -0.04 -999.99   -0.04    0.00000     0.00  LINEAR    4.01687E+03    31.49    0.00000E+00     0.00
   90.00    10.00      -8.36 -999.99   -8.36    0.00000     0.00  LINEAR    1.54263E+03    55.54    0.00000E+00     0.00
    0.00    15.00    -999.99 -999.99 -999.99    0.00000     0.00            0.00000E+00     0.00    0.00000E+00     0.00
    5.00    15.00     -11.60 -999.99  -11.60    0.00000     0.00  LINEAR    1.06260E+03  -146.73    0.00000E+00     0.00
   10.00    15.00       9.88 -999.99    9.88    0.00000     0.00  LINEAR    1.25880E+04  -160.32    0.00000E+00     0.00
   15.00    15.00       1.47 -999.99    1.47    0.00000     0.00  LINEAR    4.78128E+03  -159.05    0.00000E+00     0.00
   20.00    15.00      -5.43 -999.99   -5.43    0.00000     0.00  LINEAR    2.16101E+03    11.52    0.00000E+00     0.00
   25.00    15.00      -3.02 -999.99   -3.02    0.00000     0.00  LINEAR    2.85274E+03  -162.25    0.00000E+00     0.00
   30.00    15.00     -12.47 -999.99  -12.47    0.00000     0.00  LINEAR    9.60756E+02   173.21    0.00000E+00     0.00
   35.00    15.00      -4.81 -999.99   -4.81    0.00000     0.00  LINEAR    2.32163E+03  -178.56    0.00000E+00     0.00
   40.00    15.00     -18.33 -999.99  -18.33    0.00000     0.00  LINEAR    4.89163E+02    55.26    0.00000E+00     0.00
   45.00    15.00     -22.23 -999.99  -22.23    0.00000     0.00  LINEAR    3.12229E+02   -85.39    0.00000E+00     0.00
   50.00    15.00     -17.67 -999.99  -17.67    0.00000     0.00  LINEAR    5.27719E+02  -142.52    0.00000E+00     0.00
   55.00    15.00     -19.89 -999.99  -19.89    0.00000     0.00  LINEAR    4.08725E+02   165.88    0.00000E+00     0.00
   60.00    15.00      -9.66 -999.99   -9.66    0.00000     0.00  LINEAR    1.32808E+03  -176.31    0.00000E+00     0.00
   65.00    15.00     -23.96 -999.99  -23.96    0.00000     0.00  LINEAR    2.56011E+02    91.93    0.00000E+00     0.00
   70.00    15.00     -18.93 -999.99  -18.93    0.00000     0.00  LINEAR    4.56901E+02  -143.22    0.00000E+00     0.00
   75.00    15.00     -12.10 -999.99  -12.10    0.00000     0.00  LINEAR    1.00220E+03  -150.46    0.00000E+00     0.00
   80.00    15.00     -15.83 -999.99  -15.83    0.00000     0.00  LINEAR    6.52821E+02    65.25    0.00000E+00     0.00
   85.00    15.00      -8.84 -999.99   -8.84    0.00000     0.00  LINEAR    1.45876E+03    55.89    0.00000E+00     0.00
   90.00    15.00     -19.37 -999.99  -19.37    0.00000     0.00  LINEAR    4.34273E+02    80.73    0.00000E+00     0.00
    0.00    20.00    -999.99 -999.99 -999.99    0.00000     0.00            0.00000E+00     0.00    0.00000E+00     0.00
    5.00    20.00     -13.83 -999.99  -13.83    0.00000     0.00  LINEAR    8.21636E+02  -141.41    0.00000E+00     0.00
   10.00    20.00       8.49 -999.99    8.49    0.00000     0.00  LINEAR    1.07339E+04  -159.54    0.00000E+00     0.00
   15.00    20.00       0.28 -999.99    0.28    0.00000     0.00  LINEAR    4.16780E+03  -154.94    0.00000E+00     0.00
   20.00    20.00     -14.89 -999.99  -14.89    0.00000     0.00  LINEAR    7.27014E+02   -46.39    0.00000E+00     0.00
   25.00    20.00     -14.90 -999.99  -14.90    0.00000     0.00  LINEAR    7.26002E+02  -107.08    0.00000E+00     0.00
   30.00    20.00     -14.09 -999.99  -14.09    0.00000     0.00  LINEAR    7.97060E+02  -136.60    0.00000E+00     0.00
   35.00    20.00       1.33 -999.99    1.33    0.00000     0.00  LINEAR    4.70713E+03  -164.28    0.00000E+00     0.00
   40.00    20.00     -16.87 -999.99  -16.87    0.00000     0.00  LINEAR    5.78883E+02    59.26    0.00000E+00     0.00
   45.00    20.00     -14.93 -999.99  -14.93    0.00000     0.00  LINEAR    7.23518E+02    21.44    0.00000E+00     0.00
   50.00    20.00     -37.11 -999.99  -37.11    0.00000     0.00  LINEAR    5.62935E+01    -9.38    0.00000E+00     0.00
   55.00    20.00     -25.05 -999.99  -25.05    0.00000     0.00  LINEAR    2.25815E+02   175.49    0.00000E+00     0.00
   60.00    20.00     -14.31 -999.99  -14.31    0.00000     0.00  LINEAR    7.77340E+02    36.32    0.00000E+00     0.00
   65.00    20.00     -17.21 -999.99  -17.21    0.00000     0.00  LINEAR    5.56928E+02    50.01    0.00000E+00     0.00
   70.00    20.00     -21.93 -999.99  -21.93    0.00000     0.00  LINEAR    3.23466E+02    -6.14    0.00000E+00     0.00
   75.00    20.00      -5.44 -999.99   -5.44    0.00000     0.00  LINEAR    2.15804E+03     8.30    0.00000E+00     0.00
   80.00    20.00      -3.55 -999.99   -3.55    0.00000     0.00  LINEAR    2.68342E+03  -149.48    0.00000E+00     0.00
   85.00    20.00       6.27 -999.99    6.27    0.00000     0.00  LINEAR    8.30686E+03  -151.22    0.00000E+00     0.00
   90.00    20.00      -0.79 -999.99   -0.79    0.00000     0.00  LINEAR    3.68841E+03  -124.41    0.00000E+00     0.00
    0.00    25.00    -999.99 -999.99 -999.99    0.00000     0.00            0.00000E+00     0.00    0.00000E+00     0.00
    5.00    25.00     -17.18 -999.99  -17.18    0.00000     0.00  LINEAR    5.58873E+02  -130.32    0.00000E+00     0.00
   10.00    25.00       6.52 -999.99    6.52    0.00000     0.00  LINEAR    8.55670E+03  -158.50    0.00000E+00     0.00
   15.00    25.00      -3.56 -999.99   -3.56    0.00000     0.00  LINEAR    2.67929E+03  -146.96    0.00000E+00     0.00
   20.00    25.00      -8.66 -999.99   -8.66    0.00000     0.00  LINEAR    1.48964E+03  -123.57    0.00000E+00     0.00
   25.00    25.00     -12.01 -999.99  -12.01    0.00000     0.00  LINEAR    1.01295E+03   -54.60    0.00000E+00     0.00
   30.00    25.00      -9.19 -999.99   -9.19    0.00000     0.00  LINEAR    1.40188E+03   -18.46    0.00000E+00     0.00
   35.00    25.00      -5.94 -999.99   -5.94    0.00000     0.00  LINEAR    2.03870E+03  -155.62    0.00000E+00     0.00
   40.00    25.00     -16.79 -999.99  -16.79    0.00000     0.00  LINEAR    5.84323E+02    58.40    0.00000E+00     0.00
   45.00    25.00     -13.29 -999.99  -13.29    0.00000     0.00  LINEAR    8.74708E+02   171.84    0.00000E+00     0.00
   50.00    25.00     -14.51 -999.99  -14.51    0.00000     0.00  LINEAR    7.59559E+02    28.88    0.00000E+00     0.00
   55.00    25.00     -10.15 -999.99  -10.15    0.00000     0.00  LINEAR    1.25443E+03  -150.50    0.00000E+00     0.00
   60.00    25.00      -9.98 -999.99   -9.98    0.00000     0.00  LINEAR    1.27968E+03    10.02    0.00000E+00     0.00
   65.00    25.00      -3.76 -999.99   -3.76    0.00000     0.00  LINEAR    2.61786E+03    28.33    0.00000E+00     0.00
   70.00    25.00     -13.50 -999.99  -13.50    0.00000     0.00  LINEAR    8.53015E+02   154.20    0.00000E+00     0.00
   75.00    25.00     -18.81 -999.99  -18.81    0.00000     0.00  LINEAR    4.63296E+02    39.25    0.00000E+00     0.00
   80.00    25.00      -9.08 -999.99   -9.08    0.00000     0.00  LINEAR    1.42020E+03  -133.66    0.00000E+00     0.00
   85.00    25.00       2.53 -999.99    2.53    0.00000     0.00  LINEAR    5.40047E+03  -143.29    0.00000E+00     0.00
   90.00    25.00      -4.21 -999.99   -4.21    0.00000     0.00  LINEAR    2.48726E+03  -117.55    0.00000E+00     0.00
    0.00    30.00    -999.99 -999.99 -999.99    0.00000     0.00            0.00000E+00     0.00    0.00000E+00     0.00
    5.00    30.00     -21.61 -999.99  -21.61    0.00000     0.00  LINEAR    3.35460E+02  -101.13    0.00000E+00     0.00
   10.00    30.00       3.77 -999.99    3.77    0.00000     0.00  LINEAR    6.23186E+03  -156.98    0.00000E+00     0.00
   15.00    30.00     -14.38 -999.99  -14.38    0.00000     0.00  LINEAR    7.71502E+02   -79.65    0.00000E+00     0.00
   20.00    30.00      -7.30 -999.99   -7.30    0.00000     0.00  LINEAR    1.74310E+03  -127.81    0.00000E+00     0.00
   25.00    30.00     -11.87 -999.99  -11.87    0.00000     0.00  LINEAR    1.02971E+03   -91.57    0.00000E+00     0.00
   30.00    30.00      -8.63 -999.99   -8.63    0.00000     0.00  LINEAR    1.49568E+03   -15.51    0.00000E+00     0.00
   35.00    30.00     -11.10 -999.99  -11.10    0.00000     0.00  LINEAR    1.12518E+03     2.99    0.00000E+00     0.00
   40.00    30.00     -18.55 -999.99  -18.55    0.00000     0.00  LINEAR    4.76885E+02    55.44    0.00000E+00     0.00
   45.00    30.00       3.39 -999.99    3.39    0.00000     0.00  LINEAR    5.96210E+03  -165.08    0.00000E+00     0.00
   50.00    30.00     -14.11 -999.99  -14.11    0.00000     0.00  LINEAR    7.95343E+02  -165.45    0.00000E+00     0.00
   55.00    30.00      -7.31 -999.99   -7.31    0.00000     0.00  LINEAR    1.74124E+03  -148.85    0.00000E+00     0.00
   60.00    30.00      -5.73 -999.99   -5.73    0.00000     0.00  LINEAR    2.08667E+03  -149.93    0.00000E+00     0.00
   65.00    30.00     -12.56 -999.99  -12.56    0.00000     0.00  LINEAR    9.50980E+02    31.65    0.00000E+00     0.00
   70.00    30.00     -11.94 -999.99  -11.94    0.00000     0.00  LINEAR    1.02153E+03   165.19    0.00000E+00     0.00
   75.00    30.00     -11.35 -999.99  -11.35    0.00000     0.00  LINEAR    1.09288E+03  -175.51    0.00000E+00     0.00
   80.00    30.00     -14.79 -999.99  -14.79    0.00000     0.00  LINEAR    7.35316E+02     4.15    0.00000E+00     0.00
   85.00    30.00     -10.94 -999.99  -10.94    0.00000     0.00  LINEAR    1.14521E+03     2.04    0.00000E+00     0.00
   90.00    30.00     -19.73 -999.99  -19.73    0.00000     0.00  LINEAR    4.16426E+02    17.61    0.00000E+00     0.00
    0.00    35.00    -999.99 -999.99 -999.99    0.00000     0.00            0.00000E+00     0.00    0.00000E+00     0.00
    5.00    35.00     -21.92 -999.99  -21.92    0.00000     0.00  LINEAR    3.23652E+02   -44.68    0.00000E+00     0.00
   10.00    35.00      -0.15 -999.99   -0.15    0.00000     0.00  LINEAR    3.96851E+03  -154.36    0.00000E+00     0.00
   15.00    35.00      -2.41 -999.99   -2.41    0.00000     0.00  LINEAR    3.06058E+03     4.65    0.00000E+00     0.00
   20.00    35.00     -14.06 -999.99  -14.06    0.00000     0.00  LINEAR    8.00051E+02   -78.94    0.00000E+00     0.00
   25.00    35.00     -14.32 -999.99  -14.32    0.00000     0.00  LINEAR    7.76487E+02  -109.19    0.00000E+00     0.00
   30.00    35.00     -15.42 -999.99  -15.42    0.00000     0.00  LINEAR    6.84223E+02  -127.75    0.00000E+00     0.00
   35.00    35.00     -29.74 -999.99  -29.74    0.00000     0.00  LINEAR    1.31549E+02     7.26    0.00000E+00     0.00
   40.00    35.00     -22.81 -999.99  -22.81    0.00000     0.00  LINEAR    2.92133E+02    56.16    0.00000E+00     0.00
   45.00    35.00       7.36 -999.99    7.36    0.00000     0.00  LINEAR    9.42370E+03  -161.52    0.00000E+00     0.00
   50.00    35.00      -1.79 -999.99   -1.79    0.00000     0.00  LINEAR    3.28430E+03  -157.14    0.00000E+00     0.00
   55.00    35.00     -21.01 -999.99  -21.01    0.00000     0.00  LINEAR    3.59446E+02    -9.25    0.00000E+00     0.00
   60.00    35.00     -11.82 -999.99  -11.82    0.00000     0.00  LINEAR    1.03488E+03  -168.57    0.00000E+00     0.00
   65.00    35.00     -23.99 -999.99  -23.99    0.00000     0.00  LINEAR    2.54974E+02    98.57    0.00000E+00     0.00
   70.00    35.00     -28.53 -999.99  -28.53    0.00000     0.00  LINEAR    1.51276E+02  -148.31    0.00000E+00     0.00
   75.00    35.00     -27.24 -999.99  -27.24    0.00000     0.00  LINEAR    1.75339E+02   -80.68    0.00000E+00     0.00
   80.00    35.00     -29.30 -999.99  -29.30    0.00000     0.00  LINEAR    1.38402E+02   170.64    0.00000E+00     0.00
   85.00    35.00     -16.25 -999.99  -16.25    0.00000     0.00  LINEAR    6.21462E+02  -178.35    0.00000E+00     0.00
   90.00    35.00     -23.66 -999.99  -23.66    0.00000     0.00  LINEAR    2.64838E+02  -149.99    0.00000E+00     0.00
    0.00    40.00    -999.99 -999.99 -999.99    0.00000     0.00            0.00000E+00     0.00    0.00000E+00     0.00
    5.00    40.00     -17.77 -999.99  -17.77    0.00000     0.00  LINEAR    5.21834E+02   -14.10    0.00000E+00     0.00
   10.00    40.00      -6.16 -999.99   -6.16    0.00000     0.00  LINEAR    1.98559E+03  -148.23    0.00000E+00     0.00
   15.00    40.00       3.44 -999.99    3.44    0.00000     0.00  LINEAR    6.00093E+03    12.91    0.00000E+00     0.00
   20.00    40.00      -5.32 -999.99   -5.32    0.00000     0.00  LINEAR    2.18836E+03     7.25    0.00000E+00     0.00
   25.00    40.00     -10.40 -999.99  -10.40    0.00000     0.00  LINEAR    1.21892E+03    15.97    0.00000E+00     0.00
   30.00    40.00     -16.86 -999.99  -16.86    0.00000     0.00  LINEAR    5.79930E+02   177.60    0.00000E+00     0.00
   35.00    40.00      -2.06 -999.99   -2.06    0.00000     0.00  LINEAR    3.18491E+03  -167.13    0.00000E+00     0.00
   40.00    40.00     -32.06 -999.99  -32.06    0.00000     0.00  LINEAR    1.00698E+02    72.51    0.00000E+00     0.00
   45.00    40.00       3.56 -999.99    3.56    0.00000     0.00  LINEAR    6.08065E+03  -158.81    0.00000E+00     0.00
   50.00    40.00      -5.50 -999.99   -5.50    0.00000     0.00  LINEAR    2.14313E+03  -150.46    0.00000E+00     0.00
   55.00    40.00     -23.23 -999.99  -23.23    0.00000     0.00  LINEAR    2.78352E+02     0.38    0.00000E+00     0.00
   60.00    40.00     -14.17 -999.99  -14.17    0.00000     0.00  LINEAR    7.89649E+02   169.86    0.00000E+00     0.00
   65.00    40.00     -16.84 -999.99  -16.84    0.00000     0.00  LINEAR    5.81235E+02    63.93    0.00000E+00     0.00
   70.00    40.00     -24.07 -999.99  -24.07    0.00000     0.00  LINEAR    2.52605E+02  -147.61    0.00000E+00     0.00
   75.00    40.00     -20.51 -999.99  -20.51    0.00000     0.00  LINEAR    3.80770E+02  -131.89    0.00000E+00     0.00
   80.00    40.00     -26.90 -999.99  -26.90    0.00000     0.00  LINEAR    1.82368E+02   111.23    0.00000E+00     0.00
   85.00    40.00     -20.21 -999.99  -20.21    0.00000     0.00  LINEAR    3.94075E+02   137.09    0.00000E+00     0.00
   90.00    40.00     -27.58 -999.99  -27.58    0.00000     0.00  LINEAR    1.68649E+02   175.38    0.00000E+00     0.00
    0.00    45.00    -999.99 -999.99 -999.99    0.00000     0.00            0.00000E+00     0.00    0.00000E+00     0.00
    5.00    45.00     -14.63 -999.99  -14.63    0.00000     0.00  LINEAR    7.49674E+02    -2.51    0.00000E+00     0.00
   10.00    45.00     -17.53 -999.99  -17.53    0.00000     0.00  LINEAR    5.36281E+02  -116.00    0.00000E+00     0.00
   15.00    45.00       6.05 -999.99    6.05    0.00000     0.00  LINEAR    8.09847E+03    16.05    0.00000E+00     0.00
   20.00    45.00      -1.32 -999.99   -1.32    0.00000     0.00  LINEAR    3.46830E+03    19.41    0.00000E+00     0.00
   25.00    45.00      -2.75 -999.99   -2.75    0.00000     0.00  LINEAR    2.94175E+03    29.14    0.00000E+00     0.00
   30.00    45.00      -1.41 -999.99   -1.41    0.00000     0.00  LINEAR    3.43122E+03    28.94    0.00000E+00     0.00
   35.00    45.00      -1.45 -999.99   -1.45    0.00000     0.00  LINEAR    3.41785E+03  -168.47    0.00000E+00     0.00
   40.00    45.00     -38.88 -999.99  -38.88    0.00000     0.00  LINEAR    4.59366E+01  -141.73    0.00000E+00     0.00
   45.00    45.00     -14.77 -999.99  -14.77    0.00000     0.00  LINEAR    7.37395E+02  -143.47    0.00000E+00     0.00
   50.00    45.00     -11.92 -999.99  -11.92    0.00000     0.00  LINEAR    1.02413E+03     7.89    0.00000E+00     0.00
   55.00    45.00      -4.14 -999.99   -4.14    0.00000     0.00  LINEAR    2.50678E+03  -153.95    0.00000E+00     0.00
   60.00    45.00       2.56 -999.99    2.56    0.00000     0.00  LINEAR    5.42206E+03  -156.47    0.00000E+00     0.00
   65.00    45.00      -7.28 -999.99   -7.28    0.00000     0.00  LINEAR    1.74567E+03  -154.69    0.00000E+00     0.00
   70.00    45.00     -34.51 -999.99  -34.51    0.00000     0.00  LINEAR    7.59857E+01    68.77    0.00000E+00     0.00
   75.00    45.00     -22.26 -999.99  -22.26    0.00000     0.00  LINEAR    3.11184E+02    34.23    0.00000E+00     0.00
   80.00    45.00     -16.59 -999.99  -16.59    0.00000     0.00  LINEAR    5.97598E+02  -143.88    0.00000E+00     0.00
   85.00    45.00      -7.08 -999.99   -7.08    0.00000     0.00  LINEAR    1.78692E+03  -142.63    0.00000E+00     0.00
   90.00    45.00     -13.61 -999.99  -13.61    0.00000     0.00  LINEAR    8.42672E+02  -119.89    0.00000E+00     0.00
    0.00    50.00    -999.99 -999.99 -999.99    0.00000     0.00            0.00000E+00     0.00    0.00000E+00     0.00
    5.00    50.00     -12.57 -999.99  -12.57    0.00000     0.00  LINEAR    9.49569E+02     3.08    0.00000E+00     0.00
   10.00    50.00     -15.41 -999.99  -15.41    0.00000     0.00  LINEAR    6.85069E+02    -5.85    0.00000E+00     0.00
   15.00    50.00       6.70 -999.99    6.70    0.00000     0.00  LINEAR    8.73014E+03    18.11    0.00000E+00     0.00
   20.00    50.00      -5.70 -999.99   -5.70    0.00000     0.00  LINEAR    2.09386E+03    33.37    0.00000E+00     0.00
   25.00    50.00     -11.86 -999.99  -11.86    0.00000     0.00  LINEAR    1.03074E+03    99.46    0.00000E+00     0.00
   30.00    50.00       4.46 -999.99    4.46    0.00000     0.00  LINEAR    6.74637E+03    24.86    0.00000E+00     0.00
   35.00    50.00     -23.79 -999.99  -23.79    0.00000     0.00  LINEAR    2.60875E+02   105.09    0.00000E+00     0.00
   40.00    50.00     -35.23 -999.99  -35.23    0.00000     0.00  LINEAR    6.99399E+01   -95.53    0.00000E+00     0.00
   45.00    50.00     -26.64 -999.99  -26.64    0.00000     0.00  LINEAR    1.87951E+02    26.20    0.00000E+00     0.00
   50.00    50.00     -13.81 -999.99  -13.81    0.00000     0.00  LINEAR    8.22994E+02    29.07    0.00000E+00     0.00
   55.00    50.00      -7.52 -999.99   -7.52    0.00000     0.00  LINEAR    1.69849E+03  -149.64    0.00000E+00     0.00
   60.00    50.00      -9.58 -999.99   -9.58    0.00000     0.00  LINEAR    1.33972E+03  -129.36    0.00000E+00     0.00
[...]
   40.00   315.00     -37.25 -999.99  -37.25    0.00000     0.00  LINEAR    5.54300E+01  -111.66    0.00000E+00     0.00
   45.00   315.00     -11.15 -999.99  -11.15    0.00000     0.00  LINEAR    1.11827E+03  -175.21    0.00000E+00     0.00
   50.00   315.00     -13.21 -999.99  -13.21    0.00000     0.00  LINEAR    8.82021E+02    28.21    0.00000E+00     0.00
   55.00   315.00      -3.97 -999.99   -3.97    0.00000     0.00  LINEAR    2.55632E+03  -150.72    0.00000E+00     0.00
   60.00   315.00       2.44 -999.99    2.44    0.00000     0.00  LINEAR    5.34497E+03  -158.72    0.00000E+00     0.00
   65.00   315.00      -8.07 -999.99   -8.07    0.00000     0.00  LINEAR    1.59404E+03  -167.62    0.00000E+00     0.00
   70.00   315.00     -26.48 -999.99  -26.48    0.00000     0.00  LINEAR    1.91513E+02  -135.19    0.00000E+00     0.00
   75.00   315.00     -27.41 -999.99  -27.41    0.00000     0.00  LINEAR    1.71962E+02   -87.91    0.00000E+00     0.00
   80.00   315.00     -22.71 -999.99  -22.71    0.00000     0.00  LINEAR    2.95681E+02   174.87    0.00000E+00     0.00
   85.00   315.00     -12.43 -999.99  -12.43    0.00000     0.00  LINEAR    9.64687E+02  -166.41    0.00000E+00     0.00
   90.00   315.00     -18.35 -999.99  -18.35    0.00000     0.00  LINEAR    4.88305E+02  -139.08    0.00000E+00     0.00
    0.00   320.00    -999.99 -999.99 -999.99    0.00000     0.00            0.00000E+00     0.00    0.00000E+00     0.00
    5.00   320.00     -28.02 -999.99  -28.02    0.00000     0.00  LINEAR    1.60457E+02    -2.60    0.00000E+00     0.00
   10.00   320.00      -4.90 -999.99   -4.90    0.00000     0.00  LINEAR    2.29632E+03  -173.87    0.00000E+00     0.00
   15.00   320.00       3.63 -999.99    3.63    0.00000     0.00  LINEAR    6.12979E+03    20.37    0.00000E+00     0.00
   20.00   320.00      -6.15 -999.99   -6.15    0.00000     0.00  LINEAR    1.98868E+03    -8.27    0.00000E+00     0.00
   25.00   320.00     -12.80 -999.99  -12.80    0.00000     0.00  LINEAR    9.25088E+02  -100.59    0.00000E+00     0.00
   30.00   320.00      -5.24 -999.99   -5.24    0.00000     0.00  LINEAR    2.20853E+03  -167.16    0.00000E+00     0.00
   35.00   320.00      -0.93 -999.99   -0.93    0.00000     0.00  LINEAR    3.62726E+03  -169.69    0.00000E+00     0.00
   40.00   320.00     -32.53 -999.99  -32.53    0.00000     0.00  LINEAR    9.54690E+01    70.54    0.00000E+00     0.00
   45.00   320.00       3.77 -999.99    3.77    0.00000     0.00  LINEAR    6.23335E+03  -163.44    0.00000E+00     0.00
   50.00   320.00      -5.57 -999.99   -5.57    0.00000     0.00  LINEAR    2.12743E+03  -163.75    0.00000E+00     0.00
   55.00   320.00     -18.91 -999.99  -18.91    0.00000     0.00  LINEAR    4.57683E+02   -63.28    0.00000E+00     0.00
   60.00   320.00     -11.30 -999.99  -11.30    0.00000     0.00  LINEAR    1.09930E+03  -153.12    0.00000E+00     0.00
   65.00   320.00     -19.87 -999.99  -19.87    0.00000     0.00  LINEAR    4.09960E+02    62.70    0.00000E+00     0.00
   70.00   320.00     -23.39 -999.99  -23.39    0.00000     0.00  LINEAR    2.73298E+02  -148.40    0.00000E+00     0.00
   75.00   320.00     -17.87 -999.99  -17.87    0.00000     0.00  LINEAR    5.16158E+02  -137.08    0.00000E+00     0.00
   80.00   320.00     -22.01 -999.99  -22.01    0.00000     0.00  LINEAR    3.20407E+02    70.87    0.00000E+00     0.00
   85.00   320.00     -15.90 -999.99  -15.90    0.00000     0.00  LINEAR    6.47627E+02    72.30    0.00000E+00     0.00
   90.00   320.00     -24.46 -999.99  -24.46    0.00000     0.00  LINEAR    2.41575E+02    96.00    0.00000E+00     0.00
    0.00   325.00    -999.99 -999.99 -999.99    0.00000     0.00            0.00000E+00     0.00    0.00000E+00     0.00
    5.00   325.00     -29.64 -999.99  -29.64    0.00000     0.00  LINEAR    1.33125E+02  -128.26    0.00000E+00     0.00
   10.00   325.00       0.36 -999.99    0.36    0.00000     0.00  LINEAR    4.21031E+03  -168.36    0.00000E+00     0.00
   15.00   325.00      -1.69 -999.99   -1.69    0.00000     0.00  LINEAR    3.32379E+03    24.79    0.00000E+00     0.00
   20.00   325.00     -15.01 -999.99  -15.01    0.00000     0.00  LINEAR    7.17489E+02   -73.39    0.00000E+00     0.00
   25.00   325.00      -6.41 -999.99   -6.41    0.00000     0.00  LINEAR    1.93029E+03  -132.52    0.00000E+00     0.00
   30.00   325.00      -5.08 -999.99   -5.08    0.00000     0.00  LINEAR    2.25051E+03  -160.73    0.00000E+00     0.00
   35.00   325.00     -14.22 -999.99  -14.22    0.00000     0.00  LINEAR    7.85383E+02   153.00    0.00000E+00     0.00
   40.00   325.00     -22.66 -999.99  -22.66    0.00000     0.00  LINEAR    2.97217E+02    55.39    0.00000E+00     0.00
   45.00   325.00       7.36 -999.99    7.36    0.00000     0.00  LINEAR    9.42559E+03  -161.93    0.00000E+00     0.00
   50.00   325.00      -2.02 -999.99   -2.02    0.00000     0.00  LINEAR    3.20134E+03  -162.08    0.00000E+00     0.00
   55.00   325.00     -19.14 -999.99  -19.14    0.00000     0.00  LINEAR    4.45814E+02   -66.20    0.00000E+00     0.00
   60.00   325.00      -6.32 -999.99   -6.32    0.00000     0.00  LINEAR    1.94983E+03  -147.52    0.00000E+00     0.00
   65.00   325.00     -17.89 -999.99  -17.89    0.00000     0.00  LINEAR    5.14585E+02  -155.51    0.00000E+00     0.00
   70.00   325.00     -29.75 -999.99  -29.75    0.00000     0.00  LINEAR    1.31450E+02   -35.41    0.00000E+00     0.00
   75.00   325.00     -21.83 -999.99  -21.83    0.00000     0.00  LINEAR    3.27124E+02   -22.49    0.00000E+00     0.00
   80.00   325.00     -21.10 -999.99  -21.10    0.00000     0.00  LINEAR    3.55937E+02  -174.64    0.00000E+00     0.00
   85.00   325.00     -11.73 -999.99  -11.73    0.00000     0.00  LINEAR    1.04641E+03  -173.70    0.00000E+00     0.00
   90.00   325.00     -19.33 -999.99  -19.33    0.00000     0.00  LINEAR    4.36339E+02  -148.68    0.00000E+00     0.00
    0.00   330.00    -999.99 -999.99 -999.99    0.00000     0.00            0.00000E+00     0.00    0.00000E+00     0.00
    5.00   330.00     -20.10 -999.99  -20.10    0.00000     0.00  LINEAR    3.99238E+02  -148.47    0.00000E+00     0.00
   10.00   330.00       4.01 -999.99    4.01    0.00000     0.00  LINEAR    6.40592E+03  -166.03    0.00000E+00     0.00
   15.00   330.00     -15.42 -999.99  -15.42    0.00000     0.00  LINEAR    6.83792E+02    71.01    0.00000E+00     0.00
   20.00   330.00     -12.85 -999.99  -12.85    0.00000     0.00  LINEAR    9.19387E+02  -130.31    0.00000E+00     0.00
   25.00   330.00     -10.28 -999.99  -10.28    0.00000     0.00  LINEAR    1.23586E+03  -106.80    0.00000E+00     0.00
   30.00   330.00     -20.59 -999.99  -20.59    0.00000     0.00  LINEAR    3.77365E+02   -57.26    0.00000E+00     0.00
   35.00   330.00     -15.10 -999.99  -15.10    0.00000     0.00  LINEAR    7.09549E+02    62.94    0.00000E+00     0.00
   40.00   330.00     -18.57 -999.99  -18.57    0.00000     0.00  LINEAR    4.75999E+02    50.77    0.00000E+00     0.00
   45.00   330.00       3.51 -999.99    3.51    0.00000     0.00  LINEAR    6.05072E+03  -160.44    0.00000E+00     0.00
   50.00   330.00     -13.46 -999.99  -13.46    0.00000     0.00  LINEAR    8.57161E+02  -158.19    0.00000E+00     0.00
   55.00   330.00      -6.98 -999.99   -6.98    0.00000     0.00  LINEAR    1.80795E+03  -148.15    0.00000E+00     0.00
   60.00   330.00      -3.73 -999.99   -3.73    0.00000     0.00  LINEAR    2.62773E+03  -148.48    0.00000E+00     0.00
   65.00   330.00     -19.46 -999.99  -19.46    0.00000     0.00  LINEAR    4.29904E+02    33.14    0.00000E+00     0.00
   70.00   330.00     -14.28 -999.99  -14.28    0.00000     0.00  LINEAR    7.80205E+02   166.28    0.00000E+00     0.00
   75.00   330.00     -15.04 -999.99  -15.04    0.00000     0.00  LINEAR    7.14443E+02  -167.84    0.00000E+00     0.00
   80.00   330.00     -21.85 -999.99  -21.85    0.00000     0.00  LINEAR    3.26199E+02    18.41    0.00000E+00     0.00
   85.00   330.00     -23.96 -999.99  -23.96    0.00000     0.00  LINEAR    2.55841E+02    49.33    0.00000E+00     0.00
   90.00   330.00     -39.03 -999.99  -39.03    0.00000     0.00  LINEAR    4.51691E+01   118.07    0.00000E+00     0.00
    0.00   335.00    -999.99 -999.99 -999.99    0.00000     0.00            0.00000E+00     0.00    0.00000E+00     0.00
    5.00   335.00     -15.54 -999.99  -15.54    0.00000     0.00  LINEAR    6.74457E+02  -152.22    0.00000E+00     0.00
   10.00   335.00       6.64 -999.99    6.64    0.00000     0.00  LINEAR    8.66960E+03  -164.79    0.00000E+00     0.00
   15.00   335.00      -5.94 -999.99   -5.94    0.00000     0.00  LINEAR    2.03734E+03   178.08    0.00000E+00     0.00
   20.00   335.00     -26.03 -999.99  -26.03    0.00000     0.00  LINEAR    2.01646E+02   -54.22    0.00000E+00     0.00
   25.00   335.00      -9.40 -999.99   -9.40    0.00000     0.00  LINEAR    1.36883E+03   -26.90    0.00000E+00     0.00
   30.00   335.00     -11.37 -999.99  -11.37    0.00000     0.00  LINEAR    1.09108E+03   -19.91    0.00000E+00     0.00
   35.00   335.00      -4.83 -999.99   -4.83    0.00000     0.00  LINEAR    2.31615E+03  -170.47    0.00000E+00     0.00
   40.00   335.00     -16.96 -999.99  -16.96    0.00000     0.00  LINEAR    5.72656E+02    52.75    0.00000E+00     0.00
   45.00   335.00     -11.33 -999.99  -11.33    0.00000     0.00  LINEAR    1.09561E+03  -147.51    0.00000E+00     0.00
   50.00   335.00     -18.54 -999.99  -18.54    0.00000     0.00  LINEAR    4.77817E+02     1.87    0.00000E+00     0.00
   55.00   335.00     -13.06 -999.99  -13.06    0.00000     0.00  LINEAR    8.97893E+02  -154.19    0.00000E+00     0.00
   60.00   335.00      -6.85 -999.99   -6.85    0.00000     0.00  LINEAR    1.83410E+03    14.33    0.00000E+00     0.00
   65.00   335.00      -3.19 -999.99   -3.19    0.00000     0.00  LINEAR    2.79707E+03    27.51    0.00000E+00     0.00
   70.00   335.00     -13.39 -999.99  -13.39    0.00000     0.00  LINEAR    8.63947E+02   154.06    0.00000E+00     0.00
   75.00   335.00     -18.40 -999.99  -18.40    0.00000     0.00  LINEAR    4.85378E+02    33.09    0.00000E+00     0.00
   80.00   335.00      -8.84 -999.99   -8.84    0.00000     0.00  LINEAR    1.45889E+03  -137.71    0.00000E+00     0.00
   85.00   335.00       2.75 -999.99    2.75    0.00000     0.00  LINEAR    5.54155E+03  -146.35    0.00000E+00     0.00
   90.00   335.00      -4.02 -999.99   -4.02    0.00000     0.00  LINEAR    2.54138E+03  -120.62    0.00000E+00     0.00
    0.00   340.00    -999.99 -999.99 -999.99    0.00000     0.00            0.00000E+00     0.00    0.00000E+00     0.00
    5.00   340.00     -12.74 -999.99  -12.74    0.00000     0.00  LINEAR    9.31499E+02  -153.54    0.00000E+00     0.00
   10.00   340.00       8.54 -999.99    8.54    0.00000     0.00  LINEAR    1.07973E+04  -164.00    0.00000E+00     0.00
   15.00   340.00      -1.28 -999.99   -1.28    0.00000     0.00  LINEAR    3.48276E+03  -175.51    0.00000E+00     0.00
   20.00   340.00      -6.37 -999.99   -6.37    0.00000     0.00  LINEAR    1.94011E+03    21.83    0.00000E+00     0.00
   25.00   340.00      -9.48 -999.99   -9.48    0.00000     0.00  LINEAR    1.35541E+03   -15.72    0.00000E+00     0.00
   30.00   340.00     -13.63 -999.99  -13.63    0.00000     0.00  LINEAR    8.40908E+02   -80.91    0.00000E+00     0.00
   35.00   340.00       1.30 -999.99    1.30    0.00000     0.00  LINEAR    4.68934E+03  -163.59    0.00000E+00     0.00
   40.00   340.00     -16.97 -999.99  -16.97    0.00000     0.00  LINEAR    5.72633E+02    57.06    0.00000E+00     0.00
   45.00   340.00     -16.86 -999.99  -16.86    0.00000     0.00  LINEAR    5.79910E+02   -13.53    0.00000E+00     0.00
   50.00   340.00     -22.48 -999.99  -22.48    0.00000     0.00  LINEAR    3.03453E+02  -123.53    0.00000E+00     0.00
   55.00   340.00     -21.86 -999.99  -21.86    0.00000     0.00  LINEAR    3.25928E+02    53.42    0.00000E+00     0.00
   60.00   340.00      -6.76 -999.99   -6.76    0.00000     0.00  LINEAR    1.85435E+03    22.37    0.00000E+00     0.00
   65.00   340.00     -11.08 -999.99  -11.08    0.00000     0.00  LINEAR    1.12792E+03    23.30    0.00000E+00     0.00
   70.00   340.00     -24.76 -999.99  -24.76    0.00000     0.00  LINEAR    2.33521E+02    50.30    0.00000E+00     0.00
   75.00   340.00      -6.24 -999.99   -6.24    0.00000     0.00  LINEAR    1.96751E+03    17.97    0.00000E+00     0.00
   80.00   340.00      -3.87 -999.99   -3.87    0.00000     0.00  LINEAR    2.58627E+03  -142.11    0.00000E+00     0.00
   85.00   340.00       6.08 -999.99    6.08    0.00000     0.00  LINEAR    8.12758E+03  -145.77    0.00000E+00     0.00
   90.00   340.00      -0.90 -999.99   -0.90    0.00000     0.00  LINEAR    3.64120E+03  -119.57    0.00000E+00     0.00
    0.00   345.00    -999.99 -999.99 -999.99    0.00000     0.00            0.00000E+00     0.00    0.00000E+00     0.00
    5.00   345.00     -10.90 -999.99  -10.90    0.00000     0.00  LINEAR    1.15102E+03  -153.99    0.00000E+00     0.00
   10.00   345.00       9.90 -999.99    9.90    0.00000     0.00  LINEAR    1.26166E+04  -163.42    0.00000E+00     0.00
   15.00   345.00       0.25 -999.99    0.25    0.00000     0.00  LINEAR    4.15334E+03  -174.25    0.00000E+00     0.00
   20.00   345.00      -0.35 -999.99   -0.35    0.00000     0.00  LINEAR    3.87663E+03    24.56    0.00000E+00     0.00
   25.00   345.00     -12.58 -999.99  -12.58    0.00000     0.00  LINEAR    9.48363E+02  -139.97    0.00000E+00     0.00
   30.00   345.00     -14.49 -999.99  -14.49    0.00000     0.00  LINEAR    7.61468E+02   -55.81    0.00000E+00     0.00
   35.00   345.00      -5.60 -999.99   -5.60    0.00000     0.00  LINEAR    2.11844E+03  -160.23    0.00000E+00     0.00
   40.00   345.00     -18.17 -999.99  -18.17    0.00000     0.00  LINEAR    4.98556E+02    59.48    0.00000E+00     0.00
   45.00   345.00     -26.83 -999.99  -26.83    0.00000     0.00  LINEAR    1.84002E+02   -58.82    0.00000E+00     0.00
   50.00   345.00     -17.83 -999.99  -17.83    0.00000     0.00  LINEAR    5.18075E+02  -142.49    0.00000E+00     0.00
   55.00   345.00     -21.59 -999.99  -21.59    0.00000     0.00  LINEAR    3.36049E+02   155.74    0.00000E+00     0.00
   60.00   345.00     -12.85 -999.99  -12.85    0.00000     0.00  LINEAR    9.19552E+02  -175.79    0.00000E+00     0.00
   65.00   345.00     -20.52 -999.99  -20.52    0.00000     0.00  LINEAR    3.80489E+02    29.91    0.00000E+00     0.00
   70.00   345.00     -18.64 -999.99  -18.64    0.00000     0.00  LINEAR    4.72429E+02  -167.67    0.00000E+00     0.00
   75.00   345.00     -11.65 -999.99  -11.65    0.00000     0.00  LINEAR    1.05614E+03  -169.11    0.00000E+00     0.00
   80.00   345.00     -16.80 -999.99  -16.80    0.00000     0.00  LINEAR    5.83696E+02    36.05    0.00000E+00     0.00
   85.00   345.00      -9.50 -999.99   -9.50    0.00000     0.00  LINEAR    1.35197E+03    23.15    0.00000E+00     0.00
   90.00   345.00     -20.00 -999.99  -20.00    0.00000     0.00  LINEAR    4.03857E+02    37.25    0.00000E+00     0.00
    0.00   350.00    -999.99 -999.99 -999.99    0.00000     0.00            0.00000E+00     0.00    0.00000E+00     0.00
    5.00   350.00      -9.73 -999.99   -9.73    0.00000     0.00  LINEAR    1.31642E+03  -153.96    0.00000E+00     0.00
   10.00   350.00      10.80 -999.99   10.80    0.00000     0.00  LINEAR    1.39991E+04  -162.93    0.00000E+00     0.00
   15.00   350.00       0.57 -999.99    0.57    0.00000     0.00  LINEAR    4.30956E+03  -173.73    0.00000E+00     0.00
   20.00   350.00       2.14 -999.99    2.14    0.00000     0.00  LINEAR    5.16574E+03    25.74    0.00000E+00     0.00
   25.00   350.00      -0.01 -999.99   -0.01    0.00000     0.00  LINEAR    4.03367E+03  -164.37    0.00000E+00     0.00
   30.00   350.00      -0.88 -999.99   -0.88    0.00000     0.00  LINEAR    3.64773E+03    12.64    0.00000E+00     0.00
   35.00   350.00       2.06 -999.99    2.06    0.00000     0.00  LINEAR    5.11804E+03    16.34    0.00000E+00     0.00
   40.00   350.00     -20.16 -999.99  -20.16    0.00000     0.00  LINEAR    3.96507E+02    57.42    0.00000E+00     0.00
   45.00   350.00     -18.88 -999.99  -18.88    0.00000     0.00  LINEAR    4.59242E+02    28.40    0.00000E+00     0.00
   50.00   350.00     -31.27 -999.99  -31.27    0.00000     0.00  LINEAR    1.10352E+02    -8.35    0.00000E+00     0.00
   55.00   350.00     -22.71 -999.99  -22.71    0.00000     0.00  LINEAR    2.95449E+02   172.61    0.00000E+00     0.00
   60.00   350.00     -15.33 -999.99  -15.33    0.00000     0.00  LINEAR    6.91129E+02   166.03    0.00000E+00     0.00
   65.00   350.00     -15.27 -999.99  -15.27    0.00000     0.00  LINEAR    6.96134E+02    43.96    0.00000E+00     0.00
   70.00   350.00     -16.33 -999.99  -16.33    0.00000     0.00  LINEAR    6.16414E+02  -153.39    0.00000E+00     0.00
   75.00   350.00      -6.52 -999.99   -6.52    0.00000     0.00  LINEAR    1.90630E+03  -160.00    0.00000E+00     0.00
   80.00   350.00      -8.59 -999.99   -8.59    0.00000     0.00  LINEAR    1.50233E+03    45.83    0.00000E+00     0.00
   85.00   350.00       0.12 -999.99    0.12    0.00000     0.00  LINEAR    4.09402E+03    37.27    0.00000E+00     0.00
   90.00   350.00      -8.15 -999.99   -8.15    0.00000     0.00  LINEAR    1.57938E+03    61.08    0.00000E+00     0.00
    0.00   355.00    -999.99 -999.99 -999.99    0.00000     0.00            0.00000E+00     0.00    0.00000E+00     0.00
    5.00   355.00      -9.11 -999.99   -9.11    0.00000     0.00  LINEAR    1.41479E+03  -153.58    0.00000E+00     0.00
   10.00   355.00      11.32 -999.99   11.32    0.00000     0.00  LINEAR    1.48602E+04  -162.47    0.00000E+00     0.00
   15.00   355.00       0.52 -999.99    0.52    0.00000     0.00  LINEAR    4.28480E+03  -172.56    0.00000E+00     0.00
   20.00   355.00       2.91 -999.99    2.91    0.00000     0.00  LINEAR    5.64134E+03    26.45    0.00000E+00     0.00
   25.00   355.00       4.63 -999.99    4.63    0.00000     0.00  LINEAR    6.87686E+03  -167.64    0.00000E+00     0.00
   30.00   355.00       6.09 -999.99    6.09    0.00000     0.00  LINEAR    8.13758E+03    19.79    0.00000E+00     0.00
   35.00   355.00       9.89 -999.99    9.89    0.00000     0.00  LINEAR    1.26033E+04    17.91    0.00000E+00     0.00
   40.00   355.00     -22.08 -999.99  -22.08    0.00000     0.00  LINEAR    3.17931E+02    50.46    0.00000E+00     0.00
   45.00   355.00      -7.56 -999.99   -7.56    0.00000     0.00  LINEAR    1.69062E+03    28.57    0.00000E+00     0.00
   50.00   355.00     -19.87 -999.99  -19.87    0.00000     0.00  LINEAR    4.09697E+02    36.64    0.00000E+00     0.00
   55.00   355.00     -11.98 -999.99  -11.98    0.00000     0.00  LINEAR    1.01635E+03    19.57    0.00000E+00     0.00
   60.00   355.00     -18.56 -999.99  -18.56    0.00000     0.00  LINEAR    4.76654E+02    38.36    0.00000E+00     0.00
   65.00   355.00      -3.80 -999.99   -3.80    0.00000     0.00  LINEAR    2.60812E+03  -156.46    0.00000E+00     0.00
   70.00   355.00      -7.81 -999.99   -7.81    0.00000     0.00  LINEAR    1.64275E+03   -12.60    0.00000E+00     0.00
   75.00   355.00      -1.90 -999.99   -1.90    0.00000     0.00  LINEAR    3.24479E+03     5.60    0.00000E+00     0.00
   80.00   355.00      -4.19 -999.99   -4.19    0.00000     0.00  LINEAR    2.49381E+03  -153.19    0.00000E+00     0.00
   85.00   355.00       3.18 -999.99    3.18    0.00000     0.00  LINEAR    5.82022E+03  -154.76    0.00000E+00     0.00
   90.00   355.00      -4.40 -999.99   -4.40    0.00000     0.00  LINEAR    2.43241E+03  -126.40    0.00000E+00     0.00






 ***** DATA CARD NO. 16   EN   0     0     0     0  0.00000E+00  0.00000E+00  0.00000E+00  0.00000E+00  0.00000E+00  0.00000E+00

 RUN TIME =     0.188
