1



                                 *********************************************

                                    NUMERICAL ELECTROMAGNETICS CODE (NEC-2D)

                                 *********************************************




                                     - - - - COMMENTS - - - -


                                                                                                     
                                                                                                     




                                 - - - STRUCTURE SPECIFICATION - - -

                                     COORDINATES MUST BE INPUT IN
                                     METERS OR BE SCALED TO METERS
                                     BEFORE STRUCTURE INPUT IS ENDED


  WIRE                                                                               NO. OF    FIRST  LAST     TAG
  NO.        X1         Y1         Z1          X2         Y2         Z2      RADIUS   SEG.     SEG.   SEG.     NO.
     1   -7.50000   -5.00000   -5.00000    -7.50000   -5.00000    5.00000    0.00100     20        1    20     101
     2   -2.50000   -5.00000   -5.00000    -2.50000   -5.00000    5.00000    0.00100     20       21    40     102
     3    2.50000   -5.00000   -5.00000     2.50000   -5.00000    5.00000    0.00100     20       41    60     103
     4    7.50000   -5.00000   -5.00000     7.50000   -5.00000    5.00000    0.00100     20       61    80     104
     5   -7.50000    0.00000   -5.00000    -7.50000    0.00000    5.00000    0.00100     20       81   100     201
     6   -2.50000    0.00000   -5.00000    -2.50000    0.00000    5.00000    0.00100     20      101   120     202
     7    2.50000    0.00000   -5.00000     2.50000    0.00000    5.00000    0.00100     20      121   140     203
     8    7.50000    0.00000   -5.00000     7.50000    0.00000    5.00000    0.00100     20      141   160     204
     9   -7.50000    5.00000   -5.00000    -7.50000    5.00000    5.00000    0.00100     20      161   180     301
    10   -2.50000    5.00000   -5.00000    -2.50000    5.00000    5.00000    0.00100     20      181   200     302
    11    2.50000    5.00000   -5.00000     2.50000    5.00000    5.00000    0.00100     20      201   220     303
    12    7.50000    5.00000   -5.00000     7.50000    5.00000    5.00000    0.00100     20      221   240     304

   TOTAL SEGMENTS USED=  240     NO. SEG. IN A SYMMETRIC CELL=  240     SYMMETRY FLAG=  0


         - MULTIPLE WIRE JUNCTIONS -
 JUNCTION    SEGMENTS  (- FOR END 1, + FOR END 2)
  NONE




                                 - - - - SEGMENTATION DATA - - - -

                                        COORDINATES IN METERS

                         I+ AND I- INDICATE THE SEGMENTS BEFORE AND AFTER I


  SEG.   COORDINATES OF SEG. CENTER     SEG.     ORIENTATION ANGLES    WIRE    CONNECTION DATA   TAG
  NO.       X         Y         Z       LENGTH     ALPHA     BETA      RADIUS    I-   I    I+    NO.
     1  -7.50000  -5.00000  -4.75000   0.50000   90.00000   0.00000   0.00100     0    1    2    101
     2  -7.50000  -5.00000  -4.25000   0.50000   90.00000   0.00000   0.00100     1    2    3    101
     3  -7.50000  -5.00000  -3.75000   0.50000   90.00000   0.00000   0.00100     2    3    4    101
     4  -7.50000  -5.00000  -3.25000   0.50000   90.00000   0.00000   0.00100     3    4    5    101
     5  -7.50000  -5.00000  -2.75000   0.50000   90.00000   0.00000   0.00100     4    5    6    101
     6  -7.50000  -5.00000  -2.25000   0.50000   90.00000   0.00000   0.00100     5    6    7    101
     7  -7.50000  -5.00000  -1.75000   0.50000   90.00000   0.00000   0.00100     6    7    8    101
     8  -7.50000  -5.00000  -1.25000   0.50000   90.00000   0.00000   0.00100     7    8    9    101
     9  -7.50000  -5.00000  -0.75000   0.50000   90.00000   0.00000   0.00100     8    9   10    101
    10  -7.50000  -5.00000  -0.25000   0.50000   90.00000   0.00000   0.00100     9   10   11    101
    11  -7.50000  -5.00000   0.25000   0.50000   90.00000   0.00000   0.00100    10   11   12    101
    12  -7.50000  -5.00000   0.75000   0.50000   90.00000   0.00000   0.00100    11   12   13    101
    13  -7.50000  -5.00000   1.25000   0.50000   90.00000   0.00000   0.00100    12   13   14    101
    14  -7.50000  -5.00000   1.75000   0.50000   90.00000   0.00000   0.00100    13   14   15    101
    15  -7.50000  -5.00000   2.25000   0.50000   90.00000   0.00000   0.00100    14   15   16    101
    16  -7.50000  -5.00000   2.75000   0.50000   90.00000   0.00000   0.00100    15   16   17    101
    17  -7.50000  -5.00000   3.25000   0.50000   90.00000   0.00000   0.00100    16   17   18    101
    18  -7.50000  -5.00000   3.75000   0.50000   90.00000   0.00000   0.00100    17   18   19    101
    19  -7.50000  -5.00000   4.25000   0.50000   90.00000   0.00000   0.00100    18   19   20    101
    20  -7.50000  -5.00000   4.75000   0.50000   90.00000   0.00000   0.00100    19   20    0    101
    21  -2.50000  -5.00000  -4.75000   0.50000   90.00000   0.00000   0.00100     0   21   22    102
    22  -2.50000  -5.00000  -4.25000   0.50000   90.00000   0.00000   0.00100    21   22   23    102
    23  -2.50000  -5.00000  -3.75000   0.50000   90.00000   0.00000   0.00100    22   23   24    102
    24  -2.50000  -5.00000  -3.25000   0.50000   90.00000   0.00000   0.00100    23   24   25    102
    25  -2.50000  -5.00000  -2.75000   0.50000   90.00000   0.00000   0.00100    24   25   26    102
    26  -2.50000  -5.00000  -2.25000   0.50000   90.00000   0.00000   0.00100    25   26   27    102
    27  -2.50000  -5.00000  -1.75000   0.50000   90.00000   0.00000   0.00100    26   27   28    102
    28  -2.50000  -5.00000  -1.25000   0.50000   90.00000   0.00000   0.00100    27   28   29    102
    29  -2.50000  -5.00000  -0.75000   0.50000   90.00000   0.00000   0.00100    28   29   30    102
    30  -2.50000  -5.00000  -0.25000   0.50000   90.00000   0.00000   0.00100    29   30   31    102
    31  -2.50000  -5.00000   0.25000   0.50000   90.00000   0.00000   0.00100    30   31   32    102
    32  -2.50000  -5.00000   0.75000   0.50000   90.00000   0.00000   0.00100    31   32   33    102
    33  -2.50000  -5.00000   1.25000   0.50000   90.00000   0.00000   0.00100    32   33   34    102
    34  -2.50000  -5.00000   1.75000   0.50000   90.00000   0.00000   0.00100    33   34   35    102
    35  -2.50000  -5.00000   2.25000   0.50000   90.00000   0.00000   0.00100    34   35   36    102
    36  -2.50000  -5.00000   2.75000   0.50000   90.00000   0.00000   0.00100    35   36   37    102
    37  -2.50000  -5.00000   3.25000   0.50000   90.00000   0.00000   0.00100    36   37   38    102
    38  -2.50000  -5.00000   3.75000   0.50000   90.00000   0.00000   0.00100    37   38   39    102
    39  -2.50000  -5.00000   4.25000   0.50000   90.00000   0.00000   0.00100    38   39   40    102
    40  -2.50000  -5.00000   4.75000   0.50000   90.00000   0.00000   0.00100    39   40    0    102
    41   2.50000  -5.00000  -4.75000   0.50000   90.00000   0.00000   0.00100     0   41   42    103
    42   2.50000  -5.00000  -4.25000   0.50000   90.00000   0.00000   0.00100    41   42   43    103
    43   2.50000  -5.00000  -3.75000   0.50000   90.00000   0.00000   0.00100    42   43   44    103
    44   2.50000  -5.00000  -3.25000   0.50000   90.00000   0.00000   0.00100    43   44   45    103
    45   2.50000  -5.00000  -2.75000   0.50000   90.00000   0.00000   0.00100    44   45   46    103
    46   2.50000  -5.00000  -2.25000   0.50000   90.00000   0.00000   0.00100    45   46   47    103
    47   2.50000  -5.00000  -1.75000   0.50000   90.00000   0.00000   0.00100    46   47   48    103
    48   2.50000  -5.00000  -1.25000   0.50000   90.00000   0.00000   0.00100    47   48   49    103
    49   2.50000  -5.00000  -0.75000   0.50000   90.00000   0.00000   0.00100    48   49   50    103
    50   2.50000  -5.00000  -0.25000   0.50000   90.00000   0.00000   0.00100    49   50   51    103
    51   2.50000  -5.00000   0.25000   0.50000   90.00000   0.00000   0.00100    50   51   52    103
    52   2.50000  -5.00000   0.75000   0.50000   90.00000   0.00000   0.00100    51   52   53    103
    53   2.50000  -5.00000   1.25000   0.50000   90.00000   0.00000   0.00100    52   53   54    103
    54   2.50000  -5.00000   1.75000   0.50000   90.00000   0.00000   0.00100    53   54   55    103
    55   2.50000  -5.00000   2.25000   0.50000   90.00000   0.00000   0.00100    54   55   56    103
    56   2.50000  -5.00000   2.75000   0.50000   90.00000   0.00000   0.00100    55   56   57    103
    57   2.50000  -5.00000   3.25000   0.50000   90.00000   0.00000   0.00100    56   57   58    103
    58   2.50000  -5.00000   3.75000   0.50000   90.00000   0.00000   0.00100    57   58   59    103
    59   2.50000  -5.00000   4.25000   0.50000   90.00000   0.00000   0.00100    58   59   60    103
    60   2.50000  -5.00000   4.75000   0.50000   90.00000   0.00000   0.00100    59   60    0    103
    61   7.50000  -5.00000  -4.75000   0.50000   90.00000   0.00000   0.00100     0   61   62    104
    62   7.50000  -5.00000  -4.25000   0.50000   90.00000   0.00000   0.00100    61   62   63    104
    63   7.50000  -5.00000  -3.75000   0.50000   90.00000   0.00000   0.00100    62   63   64    104
    64   7.50000  -5.00000  -3.25000   0.50000   90.00000   0.00000   0.00100    63   64   65    104
    65   7.50000  -5.00000  -2.75000   0.50000   90.00000   0.00000   0.00100    64   65   66    104
    66   7.50000  -5.00000  -2.25000   0.50000   90.00000   0.00000   0.00100    65   66   67    104
    67   7.50000  -5.00000  -1.75000   0.50000   90.00000   0.00000   0.00100    66   67   68    104
    68   7.50000  -5.00000  -1.25000   0.50000   90.00000   0.00000   0.00100    67   68   69    104
    69   7.50000  -5.00000  -0.75000   0.50000   90.00000   0.00000   0.00100    68   69   70    104
    70   7.50000  -5.00000  -0.25000   0.50000   90.00000   0.00000   0.00100    69   70   71    104
    71   7.50000  -5.00000   0.25000   0.50000   90.00000   0.00000   0.00100    70   71   72    104
    72   7.50000  -5.00000   0.75000   0.50000   90.00000   0.00000   0.00100    71   72   73    104
    73   7.50000  -5.00000   1.25000   0.50000   90.00000   0.00000   0.00100    72   73   74    104
    74   7.50000  -5.00000   1.75000   0.50000   90.00000   0.00000   0.00100    73   74   75    104
    75   7.50000  -5.00000   2.25000   0.50000   90.00000   0.00000   0.00100    74   75   76    104
    76   7.50000  -5.00000   2.75000   0.50000   90.00000   0.00000   0.00100    75   76   77    104
    77   7.50000  -5.00000   3.25000   0.50000   90.00000   0.00000   0.00100    76   77   78    104
    78   7.50000  -5.00000   3.75000   0.50000   90.00000   0.00000   0.00100    77   78   79    104
    79   7.50000  -5.00000   4.25000   0.50000   90.00000   0.00000   0.00100    78   79   80    104
    80   7.50000  -5.00000   4.75000   0.50000   90.00000   0.00000   0.00100    79   80    0    104
    81  -7.50000   0.00000  -4.75000   0.50000   90.00000   0.00000   0.00100     0   81   82    201
    82  -7.50000   0.00000  -4.25000   0.50000   90.00000   0.00000   0.00100    81   82   83    201
    83  -7.50000   0.00000  -3.75000   0.50000   90.00000   0.00000   0.00100    82   83   84    201
    84  -7.50000   0.00000  -3.25000   0.50000   90.00000   0.00000   0.00100    83   84   85    201
    85  -7.50000   0.00000  -2.75000   0.50000   90.00000   0.00000   0.00100    84   85   86    201
    86  -7.50000   0.00000  -2.25000   0.50000   90.00000   0.00000   0.00100    85   86   87    201
    87  -7.50000   0.00000  -1.75000   0.50000   90.00000   0.00000   0.00100    86   87   88    201
    88  -7.50000   0.00000  -1.25000   0.50000   90.00000   0.00000   0.00100    87   88   89    201
    89  -7.50000   0.00000  -0.75000   0.50000   90.00000   0.00000   0.00100    88   89   90    201
    90  -7.50000   0.00000  -0.25000   0.50000   90.00000   0.00000   0.00100    89   90   91    201
    91  -7.50000   0.00000   0.25000   0.50000   90.00000   0.00000   0.00100    90   91   92    201
    92  -7.50000   0.00000   0.75000   0.50000   90.00000   0.00000   0.00100    91   92   93    201
    93  -7.50000   0.00000   1.25000   0.50000   90.00000   0.00000   0.00100    92   93   94    201
    94  -7.50000   0.00000   1.75000   0.50000   90.00000   0.00000   0.00100    93   94   95    201
    95  -7.50000   0.00000   2.25000   0.50000   90.00000   0.00000   0.00100    94   95   96    201
    96  -7.50000   0.00000   2.75000   0.50000   90.00000   0.00000   0.00100    95   96   97    201
    97  -7.50000   0.00000   3.25000   0.50000   90.00000   0.00000   0.00100    96   97   98    201
    98  -7.50000   0.00000   3.75000   0.50000   90.00000   0.00000   0.00100    97   98   99    201
    99  -7.50000   0.00000   4.25000   0.50000   90.00000   0.00000   0.00100    98   99  100    201
   100  -7.50000   0.00000   4.75000   0.50000   90.00000   0.00000   0.00100    99  100    0    201
   101  -2.50000   0.00000  -4.75000   0.50000   90.00000   0.00000   0.00100     0  101  102    202
   102  -2.50000   0.00000  -4.25000   0.50000   90.00000   0.00000   0.00100   101  102  103    202
   103  -2.50000   0.00000  -3.75000   0.50000   90.00000   0.00000   0.00100   102  103  104    202
   104  -2.50000   0.00000  -3.25000   0.50000   90.00000   0.00000   0.00100   103  104  105    202
   105  -2.50000   0.00000  -2.75000   0.50000   90.00000   0.00000   0.00100   104  105  106    202
   106  -2.50000   0.00000  -2.25000   0.50000   90.00000   0.00000   0.00100   105  106  107    202
   107  -2.50000   0.00000  -1.75000   0.50000   90.00000   0.00000   0.00100   106  107  108    202
   108  -2.50000   0.00000  -1.25000   0.50000   90.00000   0.00000   0.00100   107  108  109    202
   109  -2.50000   0.00000  -0.75000   0.50000   90.00000   0.00000   0.00100   108  109  110    202
   110  -2.50000   0.00000  -0.25000   0.50000   90.00000   0.00000   0.00100   109  110  111    202
   111  -2.50000   0.00000   0.25000   0.50000   90.00000   0.00000   0.00100   110  111  112    202
   112  -2.50000   0.00000   0.75000   0.50000   90.00000   0.00000   0.00100   111  112  113    202
   113  -2.50000   0.00000   1.25000   0.50000   90.00000   0.00000   0.00100   112  113  114    202
   114  -2.50000   0.00000   1.75000   0.50000   90.00000   0.00000   0.00100   113  114  115    202
   115  -2.50000   0.00000   2.25000   0.50000   90.00000   0.00000   0.00100   114  115  116    202
   116  -2.50000   0.00000   2.75000   0.50000   90.00000   0.00000   0.00100   115  116  117    202
   117  -2.50000   0.00000   3.25000   0.50000   90.00000   0.00000   0.00100   116  117  118    202
   118  -2.50000   0.00000   3.75000   0.50000   90.00000   0.00000   0.00100   117  118  119    202
   119  -2.50000   0.00000   4.25000   0.50000   90.00000   0.00000   0.00100   118  119  120    202
   120  -2.50000   0.00000   4.75000   0.50000   90.00000   0.00000   0.00100   119  120    0    202
   121   2.50000   0.00000  -4.75000   0.50000   90.00000   0.00000   0.00100     0  121  122    203
   122   2.50000   0.00000  -4.25000   0.50000   90.00000   0.00000   0.00100   121  122  123    203
   123   2.50000   0.00000  -3.75000   0.50000   90.00000   0.00000   0.00100   122  123  124    203
   124   2.50000   0.00000  -3.25000   0.50000   90.00000   0.00000   0.00100   123  124  125    203
   125   2.50000   0.00000  -2.75000   0.50000   90.00000   0.00000   0.00100   124  125  126    203
   126   2.50000   0.00000  -2.25000   0.50000   90.00000   0.00000   0.00100   125  126  127    203
   127   2.50000   0.00000  -1.75000   0.50000   90.00000   0.00000   0.00100   126  127  128    203
   128   2.50000   0.00000  -1.25000   0.50000   90.00000   0.00000   0.00100   127  128  129    203
   129   2.50000   0.00000  -0.75000   0.50000   90.00000   0.00000   0.00100   128  129  130    203
   130   2.50000   0.00000  -0.25000   0.50000   90.00000   0.00000   0.00100   129  130  131    203
   131   2.50000   0.00000   0.25000   0.50000   90.00000   0.00000   0.00100   130  131  132    203
   132   2.50000   0.00000   0.75000   0.50000   90.00000   0.00000   0.00100   131  132  133    203
   133   2.50000   0.00000   1.25000   0.50000   90.00000   0.00000   0.00100   132  133  134    203
   134   2.50000   0.00000   1.75000   0.50000   90.00000   0.00000   0.00100   133  134  135    203
   135   2.50000   0.00000   2.25000   0.50000   90.00000   0.00000   0.00100   134  135  136    203
   136   2.50000   0.00000   2.75000   0.50000   90.00000   0.00000   0.00100   135  136  137    203
   137   2.50000   0.00000   3.25000   0.50000   90.00000   0.00000   0.00100   136  137  138    203
   138   2.50000   0.00000   3.75000   0.50000   90.00000   0.00000   0.00100   137  138  139    203
   139   2.50000   0.00000   4.25000   0.50000   90.00000   0.00000   0.00100   138  139  140    203
   140   2.50000   0.00000   4.75000   0.50000   90.00000   0.00000   0.00100   139  140    0    203
   141   7.50000   0.00000  -4.75000   0.50000   90.00000   0.00000   0.00100     0  141  142    204
   142   7.50000   0.00000  -4.25000   0.50000   90.00000   0.00000   0.00100   141  142  143    204
   143   7.50000   0.00000  -3.75000   0.50000   90.00000   0.00000   0.00100   142  143  144    204
   144   7.50000   0.00000  -3.25000   0.50000   90.00000   0.00000   0.00100   143  144  145    204
   145   7.50000   0.00000  -2.75000   0.50000   90.00000   0.00000   0.00100   144  145  146    204
   146   7.50000   0.00000  -2.25000   0.50000   90.00000   0.00000   0.00100   145  146  147    204
   147   7.50000   0.00000  -1.75000   0.50000   90.00000   0.00000   0.00100   146  147  148    204
   148   7.50000   0.00000  -1.25000   0.50000   90.00000   0.00000   0.00100   147  148  149    204
   149   7.50000   0.00000  -0.75000   0.50000   90.00000   0.00000   0.00100   148  149  150    204
   150   7.50000   0.00000  -0.25000   0.50000   90.00000   0.00000   0.00100   149  150  151    204
   151   7.50000   0.00000   0.25000   0.50000   90.00000   0.00000   0.00100   150  151  152    204
   152   7.50000   0.00000   0.75000   0.50000   90.00000   0.00000   0.00100   151  152  153    204
   153   7.50000   0.00000   1.25000   0.50000   90.00000   0.00000   0.00100   152  153  154    204
   154   7.50000   0.00000   1.75000   0.50000   90.00000   0.00000   0.00100   153  154  155    204
   155   7.50000   0.00000   2.25000   0.50000   90.00000   0.00000   0.00100   154  155  156    204
   156   7.50000   0.00000   2.75000   0.50000   90.00000   0.00000   0.00100   155  156  157    204
   157   7.50000   0.00000   3.25000   0.50000   90.00000   0.00000   0.00100   156  157  158    204
   158   7.50000   0.00000   3.75000   0.50000   90.00000   0.00000   0.00100   157  158  159    204
   159   7.50000   0.00000   4.25000   0.50000   90.00000   0.00000   0.00100   158  159  160    204
   160   7.50000   0.00000   4.75000   0.50000   90.00000   0.00000   0.00100   159  160    0    204
   161  -7.50000   5.00000  -4.75000   0.50000   90.00000   0.00000   0.00100     0  161  162    301
   162  -7.50000   5.00000  -4.25000   0.50000   90.00000   0.00000   0.00100   161  162  163    301
   163  -7.50000   5.00000  -3.75000   0.50000   90.00000   0.00000   0.00100   162  163  164    301
   164  -7.50000   5.00000  -3.25000   0.50000   90.00000   0.00000   0.00100   163  164  165    301
   165  -7.50000   5.00000  -2.75000   0.50000   90.00000   0.00000   0.00100   164  165  166    301
   166  -7.50000   5.00000  -2.25000   0.50000   90.00000   0.00000   0.00100   165  166  167    301
   167  -7.50000   5.00000  -1.75000   0.50000   90.00000   0.00000   0.00100   166  167  168    301
   168  -7.50000   5.00000  -1.25000   0.50000   90.00000   0.00000   0.00100   167  168  169    301
   169  -7.50000   5.00000  -0.75000   0.50000   90.00000   0.00000   0.00100   168  169  170    301
   170  -7.50000   5.00000  -0.25000   0.50000   90.00000   0.00000   0.00100   169  170  171    301
   171  -7.50000   5.00000   0.25000   0.50000   90.00000   0.00000   0.00100   170  171  172    301
   172  -7.50000   5.00000   0.75000   0.50000   90.00000   0.00000   0.00100   171  172  173    301
   173  -7.50000   5.00000   1.25000   0.50000   90.00000   0.00000   0.00100   172  173  174    301
   174  -7.50000   5.00000   1.75000   0.50000   90.00000   0.00000   0.00100   173  174  175    301
   175  -7.50000   5.00000   2.25000   0.50000   90.00000   0.00000   0.00100   174  175  176    301
   176  -7.50000   5.00000   2.75000   0.50000   90.00000   0.00000   0.00100   175  176  177    301
   177  -7.50000   5.00000   3.25000   0.50000   90.00000   0.00000   0.00100   176  177  178    301
   178  -7.50000   5.00000   3.75000   0.50000   90.00000   0.00000   0.00100   177  178  179    301
   179  -7.50000   5.00000   4.25000   0.50000   90.00000   0.00000   0.00100   178  179  180    301
   180  -7.50000   5.00000   4.75000   0.50000   90.00000   0.00000   0.00100   179  180    0    301
   181  -2.50000   5.00000  -4.75000   0.50000   90.00000   0.00000   0.00100     0  181  182    302
   182  -2.50000   5.00000  -4.25000   0.50000   90.00000   0.00000   0.00100   181  182  183    302
   183  -2.50000   5.00000  -3.75000   0.50000   90.00000   0.00000   0.00100   182  183  184    302
   184  -2.50000   5.00000  -3.25000   0.50000   90.00000   0.00000   0.00100   183  184  185    302
   185  -2.50000   5.00000  -2.75000   0.50000   90.00000   0.00000   0.00100   184  185  186    302
   186  -2.50000   5.00000  -2.25000   0.50000   90.00000   0.00000   0.00100   185  186  187    302
   187  -2.50000   5.00000  -1.75000   0.50000   90.00000   0.00000   0.00100   186  187  188    302
   188  -2.50000   5.00000  -1.25000   0.50000   90.00000   0.00000   0.00100   187  188  189    302
   189  -2.50000   5.00000  -0.75000   0.50000   90.00000   0.00000   0.00100   188  189  190    302
   190  -2.50000   5.00000  -0.25000   0.50000   90.00000   0.00000   0.00100   189  190  191    302
   191  -2.50000   5.00000   0.25000   0.50000   90.00000   0.00000   0.00100   190  191  192    302
   192  -2.50000   5.00000   0.75000   0.50000   90.00000   0.00000   0.00100   191  192  193    302
   193  -2.50000   5.00000   1.25000   0.50000   90.00000   0.00000   0.00100   192  193  194    302
   194  -2.50000   5.00000   1.75000   0.50000   90.00000   0.00000   0.00100   193  194  195    302
   195  -2.50000   5.00000   2.25000   0.50000   90.00000   0.00000   0.00100   194  195  196    302
   196  -2.50000   5.00000   2.75000   0.50000   90.00000   0.00000   0.00100   195  196  197    302
   197  -2.50000   5.00000   3.25000   0.50000   90.00000   0.00000   0.00100   196  197  198    302
   198  -2.50000   5.00000   3.75000   0.50000   90.00000   0.00000   0.00100   197  198  199    302
   199  -2.50000   5.00000   4.25000   0.50000   90.00000   0.00000   0.00100   198  199  200    302
   200  -2.50000   5.00000   4.75000   0.50000   90.00000   0.00000   0.00100   199  200    0    302
   201   2.50000   5.00000  -4.75000   0.50000   90.00000   0.00000   0.00100     0  201  202    303
   202   2.50000   5.00000  -4.25000   0.50000   90.00000   0.00000   0.00100   201  202  203    303
   203   2.50000   5.00000  -3.75000   0.50000   90.00000   0.00000   0.00100   202  203  204    303
   204   2.50000   5.00000  -3.25000   0.50000   90.00000   0.00000   0.00100   203  204  205    303
   205   2.50000   5.00000  -2.75000   0.50000   90.00000   0.00000   0.00100   204  205  206    303
   206   2.50000   5.00000  -2.25000   0.50000   90.00000   0.00000   0.00100   205  206  207    303
   207   2.50000   5.00000  -1.75000   0.50000   90.00000   0.00000   0.00100   206  207  208    303
   208   2.50000   5.00000  -1.25000   0.50000   90.00000   0.00000   0.00100   207  208  209    303
   209   2.50000   5.00000  -0.75000   0.50000   90.00000   0.00000   0.00100   208  209  210    303
   210   2.50000   5.00000  -0.25000   0.50000   90.00000   0.00000   0.00100   209  210  211    303
   211   2.50000   5.00000   0.25000   0.50000   90.00000   0.00000   0.00100   210  211  212    303
   212   2.50000   5.00000   0.75000   0.50000   90.00000   0.00000   0.00100   211  212  213    303
   213   2.50000   5.00000   1.25000   0.50000   90.00000   0.00000   0.00100   212  213  214    303
   214   2.50000   5.00000   1.75000   0.50000   90.00000   0.00000   0.00100   213  214  215    303
   215   2.50000   5.00000   2.25000   0.50000   90.00000   0.00000   0.00100   214  215  216    303
   216   2.50000   5.00000   2.75000   0.50000   90.00000   0.00000   0.00100   215  216  217    303
   217   2.50000   5.00000   3.25000   0.50000   90.00000   0.00000   0.00100   216  217  218    303
   218   2.50000   5.00000   3.75000   0.50000   90.00000   0.00000   0.00100   217  218  219    303
   219   2.50000   5.00000   4.25000   0.50000   90.00000   0.00000   0.00100   218  219  220    303
   220   2.50000   5.00000   4.75000   0.50000   90.00000   0.00000   0.00100   219  220    0    303
   221   7.50000   5.00000  -4.75000   0.50000   90.00000   0.00000   0.00100     0  221  222    304
   222   7.50000   5.00000  -4.25000   0.50000   90.00000   0.00000   0.00100   221  222  223    304
   223   7.50000   5.00000  -3.75000   0.50000   90.00000   0.00000   0.00100   222  223  224    304
   224   7.50000   5.00000  -3.25000   0.50000   90.00000   0.00000   0.00100   223  224  225    304
   225   7.50000   5.00000  -2.75000   0.50000   90.00000   0.00000   0.00100   224  225  226    304
   226   7.50000   5.00000  -2.25000   0.50000   90.00000   0.00000   0.00100   225  226  227    304
   227   7.50000   5.00000  -1.75000   0.50000   90.00000   0.00000   0.00100   226  227  228    304
   228   7.50000   5.00000  -1.25000   0.50000   90.00000   0.00000   0.00100   227  228  229    304
   229   7.50000   5.00000  -0.75000   0.50000   90.00000   0.00000   0.00100   228  229  230    304
   230   7.50000   5.00000  -0.25000   0.50000   90.00000   0.00000   0.00100   229  230  231    304
   231   7.50000   5.00000   0.25000   0.50000   90.00000   0.00000   0.00100   230  231  232    304
   232   7.50000   5.00000   0.75000   0.50000   90.00000   0.00000   0.00100   231  232  233    304
   233   7.50000   5.00000   1.25000   0.50000   90.00000   0.00000   0.00100   232  233  234    304
   234   7.50000   5.00000   1.75000   0.50000   90.00000   0.00000   0.00100   233  234  235    304
   235   7.50000   5.00000   2.25000   0.50000   90.00000   0.00000   0.00100   234  235  236    304
   236   7.50000   5.00000   2.75000   0.50000   90.00000   0.00000   0.00100   235  236  237    304
   237   7.50000   5.00000   3.25000   0.50000   90.00000   0.00000   0.00100   236  237  238    304
   238   7.50000   5.00000   3.75000   0.50000   90.00000   0.00000   0.00100   237  238  239    304
   239   7.50000   5.00000   4.25000   0.50000   90.00000   0.00000   0.00100   238  239  240    304
   240   7.50000   5.00000   4.75000   0.50000   90.00000   0.00000   0.00100   239  240    0    304






 ***** DATA CARD NO.  1   GN  -1     0     0     0  1.00000E+01  1.00000E-02  0.00000E+00  0.00000E+00  0.00000E+00  0.00000E+00
 ***** DATA CARD NO.  2   FR   0     0     0     0  1.50000E+02  0.00000E+00  0.00000E+00  0.00000E+00  0.00000E+00  0.00000E+00
 ***** DATA CARD NO.  3   EX   0   101    10     0 -6.50500E-01  1.52740E+01  0.00000E+00  0.00000E+00  0.00000E+00  0.00000E+00
 ***** DATA CARD NO.  4   EX   0   102    10     0  1.46940E+01  7.98950E-01  0.00000E+00  0.00000E+00  0.00000E+00  0.00000E+00
 ***** DATA CARD NO.  5   EX   0   103    10     0 -1.20700E+01  2.92540E+01  0.00000E+00  0.00000E+00  0.00000E+00  0.00000E+00
 ***** DATA CARD NO.  6   EX   0   104    10     0  3.05310E+01 -1.85430E+00  0.00000E+00  0.00000E+00  0.00000E+00  0.00000E+00
 ***** DATA CARD NO.  7   EX   0   201    10     0 -1.06210E+01 -9.14110E+00  0.00000E+00  0.00000E+00  0.00000E+00  0.00000E+00
 ***** DATA CARD NO.  8   EX   0   202    10     0  5.51800E+01 -2.43120E+01  0.00000E+00  0.00000E+00  0.00000E+00  0.00000E+00
 ***** DATA CARD NO.  9   EX   0   203    10     0 -2.71200E+01 -4.47500E+00  0.00000E+00  0.00000E+00  0.00000E+00  0.00000E+00
 ***** DATA CARD NO. 10   EX   0   204    10     0  9.95810E+01 -8.24190E+00  0.00000E+00  0.00000E+00  0.00000E+00  0.00000E+00
 ***** DATA CARD NO. 11   EX   0   301    10     0  6.07930E+00 -4.77030E+01  0.00000E+00  0.00000E+00  0.00000E+00  0.00000E+00
 ***** DATA CARD NO. 12   EX   0   302    10     0  2.65440E+01  1.72390E+01  0.00000E+00  0.00000E+00  0.00000E+00  0.00000E+00
 ***** DATA CARD NO. 13   EX   0   303    10     0 -3.47710E+01  1.91890E+01  0.00000E+00  0.00000E+00  0.00000E+00  0.00000E+00
 ***** DATA CARD NO. 14   EX   0   304    10     0  8.46970E+00 -1.07860E+01  0.00000E+00  0.00000E+00  0.00000E+00  0.00000E+00
 ***** DATA CARD NO. 15   RP   0    19    72  1010  0.00000E+00  0.00000E+00  5.00000E+00  5.00000E+00  0.00000E+00  0.00000E+00




                                 - - - - - - FREQUENCY - - - - - -

                                    FREQUENCY= 1.5000E+02 MHZ
                                    WAVELENGTH= 1.9987E+00 METERS




                    APPROXIMATE INTEGRATION EMPLOYED FOR SEGMENTS MORE THAN   1.000 WAVELENGTHS APART



                               - - - STRUCTURE IMPEDANCE LOADING - - -

                                   THIS STRUCTURE IS NOT LOADED



                                  - - - ANTENNA ENVIRONMENT - - -

                                            FREE SPACE



                                - - - MATRIX TIMING - - -

                        FILL=    0.031 SEC.,  FACTOR=    0.016 SEC.



                                          - - - ANTENNA INPUT PARAMETERS - - -

   TAG   SEG.    VOLTAGE (VOLTS)         CURRENT (AMPS)         IMPEDANCE (OHMS)        ADMITTANCE (MHOS)      POWER
   NO.   NO.    REAL        IMAG.       REAL        IMAG.       REAL        IMAG.       REAL        IMAG.     (WATTS)
   101    10-6.50500E-01 1.52740E+01 2.67498E-02 4.23521E-02 2.50866E+02 1.73808E+02 2.69335E-03-1.86603E-03 3.14742E-01
   102    30 1.46940E+01 7.98950E-01 3.95016E-02-2.07032E-02 2.83507E+02 1.68815E+02 2.60398E-03-1.55054E-03 2.81948E-01
   103    50-1.20700E+01 2.92540E+01 1.78588E-02 1.09572E-01 2.42587E+02 1.49695E+02 2.98543E-03-1.84224E-03 1.49493E+00
   104    70 3.05310E+01-1.85430E+00 8.07021E-02-4.75693E-02 2.90818E+02 1.48444E+02 2.72785E-03-1.39239E-03 1.27606E+00
   201    90-1.06210E+01-9.14110E+00-3.73940E-02-3.88644E-03 3.06129E+02 2.12637E+02 2.20349E-03-1.53054E-03 2.16344E-01
   202   110 5.51800E+01-2.43120E+01 1.28307E-01-1.48777E-01 2.77145E+02 1.31877E+02 2.94206E-03-1.39996E-03 5.34853E+00
   203   130-2.71200E+01-4.47500E+00-8.43551E-02 2.98428E-02 2.69056E+02 1.48235E+02 2.85123E-03-1.57087E-03 1.07708E+00
   204   150 9.95810E+01-8.24190E+00 2.78520E-01-1.60726E-01 2.81028E+02 1.32581E+02 2.91056E-03-1.37313E-03 1.45300E+01
   301   170 6.07930E+00-4.77030E+01-4.29726E-02-1.53619E-01 2.77726E+02 1.17264E+02 3.05588E-03-1.29028E-03 3.53341E+00
   302   190 2.65440E+01 1.72390E+01 1.00651E-01 1.13549E-02 2.79489E+02 1.39745E+02 2.86237E-03-1.43119E-03 1.43371E+00
   303   210-3.47710E+01 1.91890E+01-6.27875E-02 1.07290E-01 2.74501E+02 1.63443E+02 2.68949E-03-1.60137E-03 2.12098E+00
   304   230 8.46970E+00-1.07860E+01 8.60629E-03-4.51373E-02 2.65100E+02 1.37097E+02 2.97619E-03-1.53914E-03 2.79872E-01



                             - - - CURRENTS AND LOCATION - - -

                                 DISTANCES IN WAVELENGTHS


  SEG.  TAG    COORD. OF SEG. CENTER     SEG.            - - - CURRENT (AMPS) - - -
  NO.   NO.     X        Y        Z      LENGTH     REAL        IMAG.       MAG.        PHASE
     1  101  -3.7525  -2.5017  -2.3766  0.25017   3.5541E-02  3.9846E-02  5.3394E-02   48.268
     2  101  -3.7525  -2.5017  -2.1264  0.25017   2.7646E-02  3.6981E-02  4.6173E-02   53.220
     3  101  -3.7525  -2.5017  -1.8763  0.25017  -3.6137E-02 -3.8855E-02  5.3062E-02 -132.924
     4  101  -3.7525  -2.5017  -1.6261  0.25017  -2.5240E-02 -3.7162E-02  4.4923E-02 -124.185
     5  101  -3.7525  -2.5017  -1.3759  0.25017   3.5118E-02  3.7597E-02  5.1447E-02   46.953
     6  101  -3.7525  -2.5017  -1.1258  0.25017   2.0289E-02  3.6439E-02  4.1706E-02   60.891
     7  101  -3.7525  -2.5017  -0.8756  0.25017  -4.0459E-02 -3.8429E-02  5.5801E-02 -136.474
     8  101  -3.7525  -2.5017  -0.6254  0.25017  -2.3459E-02 -3.7583E-02  4.4304E-02 -121.973
     9  101  -3.7525  -2.5017  -0.3753  0.25017   3.8066E-02  3.9372E-02  5.4765E-02   45.966
    10  101  -3.7525  -2.5017  -0.1251  0.25017   2.6750E-02  4.2352E-02  5.0092E-02   57.723
    11  101  -3.7525  -2.5017   0.1251  0.25017  -3.1729E-03 -3.2624E-02  3.2778E-02  -95.555
    12  101  -3.7525  -2.5017   0.3753  0.25017  -1.9092E-02 -4.0363E-02  4.4650E-02 -115.315
    13  101  -3.7525  -2.5017   0.6254  0.25017   5.9752E-03  3.0603E-02  3.1180E-02   78.952
    14  101  -3.7525  -2.5017   0.8756  0.25017   2.0330E-02  3.7810E-02  4.2929E-02   61.733
    15  101  -3.7525  -2.5017   1.1258  0.25017  -6.0732E-03 -3.1313E-02  3.1896E-02 -100.976
    16  101  -3.7525  -2.5017   1.3759  0.25017  -1.9557E-02 -3.6713E-02  4.1597E-02 -118.044
    17  101  -3.7525  -2.5017   1.6261  0.25017   6.8029E-03  3.3490E-02  3.4174E-02   78.518
    18  101  -3.7525  -2.5017   1.8763  0.25017   1.7692E-02  3.9344E-02  4.3138E-02   65.788
    19  101  -3.7525  -2.5017   2.1264  0.25017  -1.0129E-02 -3.1297E-02  3.2895E-02 -107.933
    20  101  -3.7525  -2.5017   2.3766  0.25017  -1.6762E-02 -3.6822E-02  4.0458E-02 -114.476
    21  102  -1.2508  -2.5017  -2.3766  0.25017   3.6950E-02 -2.8827E-02  4.6865E-02  -37.960
    22  102  -1.2508  -2.5017  -2.1264  0.25017   3.6132E-02 -2.1075E-02  4.1829E-02  -30.253
    23  102  -1.2508  -2.5017  -1.8763  0.25017  -3.3926E-02  3.0607E-02  4.5692E-02  137.944
    24  102  -1.2508  -2.5017  -1.6261  0.25017  -3.4862E-02  1.9242E-02  3.9819E-02  151.103
    25  102  -1.2508  -2.5017  -1.3759  0.25017   3.2673E-02 -3.1198E-02  4.5176E-02  -43.677
    26  102  -1.2508  -2.5017  -1.1258  0.25017   3.2124E-02 -1.8494E-02  3.7068E-02  -29.929
    27  102  -1.2508  -2.5017  -0.8756  0.25017  -3.6782E-02  3.0864E-02  4.8015E-02  140.000
    28  102  -1.2508  -2.5017  -0.6254  0.25017  -3.6669E-02  1.6673E-02  4.0281E-02  155.549
    29  102  -1.2508  -2.5017  -0.3753  0.25017   3.4781E-02 -3.1279E-02  4.6777E-02  -41.966
    30  102  -1.2508  -2.5017  -0.1251  0.25017   3.9502E-02 -2.0703E-02  4.4598E-02  -27.659
    31  102  -1.2508  -2.5017   0.1251  0.25017  -2.7925E-02 -2.8817E-03  2.8073E-02 -174.108
    32  102  -1.2508  -2.5017   0.3753  0.25017  -3.5685E-02  1.2098E-02  3.7680E-02  161.272
    33  102  -1.2508  -2.5017   0.6254  0.25017   2.8779E-02 -9.5114E-04  2.8795E-02   -1.893
    34  102  -1.2508  -2.5017   0.8756  0.25017   3.5812E-02 -1.3036E-02  3.8111E-02  -20.002
    35  102  -1.2508  -2.5017   1.1258  0.25017  -2.7848E-02  2.8260E-03  2.7991E-02  174.206
    36  102  -1.2508  -2.5017   1.3759  0.25017  -3.4771E-02  1.4508E-02  3.7676E-02  157.352
    37  102  -1.2508  -2.5017   1.6261  0.25017   2.7686E-02 -1.7722E-03  2.7743E-02   -3.662
    38  102  -1.2508  -2.5017   1.8763  0.25017   3.3300E-02 -1.1359E-02  3.5184E-02  -18.835
    39  102  -1.2508  -2.5017   2.1264  0.25017  -2.9452E-02  6.1738E-03  3.0092E-02  168.161
    40  102  -1.2508  -2.5017   2.3766  0.25017  -3.3349E-02  1.1505E-02  3.5278E-02  160.966
    41  103   1.2508  -2.5017  -2.3766  0.25017   3.5465E-02  1.1366E-01  1.1906E-01   72.670
    42  103   1.2508  -2.5017  -2.1264  0.25017   2.2552E-02  1.0141E-01  1.0388E-01   77.462
    43  103   1.2508  -2.5017  -1.8763  0.25017  -3.8285E-02 -1.1253E-01  1.1887E-01 -108.789
    44  103   1.2508  -2.5017  -1.6261  0.25017  -1.8263E-02 -1.0222E-01  1.0384E-01 -100.130
    45  103   1.2508  -2.5017  -1.3759  0.25017   3.8026E-02  1.0494E-01  1.1162E-01   70.082
    46  103   1.2508  -2.5017  -1.1258  0.25017   1.1198E-02  9.2585E-02  9.3260E-02   83.104
    47  103   1.2508  -2.5017  -0.8756  0.25017  -4.4986E-02 -1.1311E-01  1.2173E-01 -111.688
    48  103   1.2508  -2.5017  -0.6254  0.25017  -1.3711E-02 -9.7187E-02  9.8149E-02  -98.030
    49  103   1.2508  -2.5017  -0.3753  0.25017   4.1660E-02  1.1455E-01  1.2189E-01   70.015
    50  103   1.2508  -2.5017  -0.1251  0.25017   1.7859E-02  1.0957E-01  1.1102E-01   80.743
    51  103   1.2508  -2.5017   0.1251  0.25017   2.2408E-02 -7.7879E-02  8.1039E-02  -73.948
    52  103   1.2508  -2.5017   0.3753  0.25017  -3.4926E-03 -1.0364E-01  1.0370E-01  -91.930
    53  103   1.2508  -2.5017   0.6254  0.25017  -1.5880E-02  7.1241E-02  7.2989E-02  102.566
    54  103   1.2508  -2.5017   0.8756  0.25017   5.1557E-03  9.5393E-02  9.5533E-02   86.906
    55  103   1.2508  -2.5017   1.1258  0.25017   1.2075E-02 -7.4194E-02  7.5170E-02  -80.756
    56  103   1.2508  -2.5017   1.3759  0.25017  -8.3821E-03 -9.0609E-02  9.0996E-02  -95.285
    57  103   1.2508  -2.5017   1.6261  0.25017  -1.4553E-02  8.3383E-02  8.4643E-02   99.900
    58  103   1.2508  -2.5017   1.8763  0.25017   2.8424E-03  9.8241E-02  9.8282E-02   88.343
    59  103   1.2508  -2.5017   2.1264  0.25017   8.7136E-03 -8.0709E-02  8.1178E-02  -83.838
    60  103   1.2508  -2.5017   2.3766  0.25017  -2.3978E-04 -9.4814E-02  9.4814E-02  -90.145
    61  104   3.7525  -2.5017  -2.3766  0.25017   7.2918E-02 -6.1716E-02  9.5529E-02  -40.244
    62  104   3.7525  -2.5017  -2.1264  0.25017   7.3639E-02 -4.5110E-02  8.6357E-02  -31.491
    63  104   3.7525  -2.5017  -1.8763  0.25017  -6.4196E-02  6.6496E-02  9.2427E-02  133.992
    64  104   3.7525  -2.5017  -1.6261  0.25017  -6.8771E-02  4.2234E-02  8.0705E-02  148.445
    65  104   3.7525  -2.5017  -1.3759  0.25017   6.4936E-02 -6.7731E-02  9.3831E-02  -46.207
    66  104   3.7525  -2.5017  -1.1258  0.25017   6.8381E-02 -4.1247E-02  7.9858E-02  -31.098
    67  104   3.7525  -2.5017  -0.8756  0.25017  -6.6606E-02  6.6795E-02  9.4329E-02  134.919
    68  104   3.7525  -2.5017  -0.6254  0.25017  -7.0495E-02  3.7491E-02  7.9844E-02  151.995
    69  104   3.7525  -2.5017  -0.3753  0.25017   6.9372E-02 -6.8315E-02  9.7362E-02  -44.560
    70  104   3.7525  -2.5017  -0.1251  0.25017   8.0702E-02 -4.7569E-02  9.3679E-02  -30.517
    71  104   3.7525  -2.5017   0.1251  0.25017  -5.9864E-02 -4.4662E-03  6.0030E-02 -175.733
    72  104   3.7525  -2.5017   0.3753  0.25017  -7.3060E-02  2.8872E-02  7.8558E-02  158.437
    73  104   3.7525  -2.5017   0.6254  0.25017   6.0822E-02 -3.5632E-03  6.0926E-02   -3.353
    74  104   3.7525  -2.5017   0.8756  0.25017   7.1667E-02 -3.1361E-02  7.8228E-02  -23.634
    75  104   3.7525  -2.5017   1.1258  0.25017  -6.0601E-02  5.7469E-03  6.0873E-02  174.583
    76  104   3.7525  -2.5017   1.3759  0.25017  -7.0848E-02  3.1854E-02  7.7679E-02  155.791
    77  104   3.7525  -2.5017   1.6261  0.25017   5.9807E-02 -6.7089E-03  6.0182E-02   -6.400
    78  104   3.7525  -2.5017   1.8763  0.25017   6.8158E-02 -2.9466E-02  7.4254E-02  -23.380
    79  104   3.7525  -2.5017   2.1264  0.25017  -6.3469E-02  1.0621E-02  6.4352E-02  170.500
    80  104   3.7525  -2.5017   2.3766  0.25017  -6.9751E-02  2.4636E-02  7.3974E-02  160.547
    81  201  -3.7525   0.0000  -2.3766  0.25017  -3.9517E-02  4.4658E-03  3.9768E-02  173.552
    82  201  -3.7525   0.0000  -2.1264  0.25017  -3.0913E-02 -3.4372E-03  3.1103E-02 -173.655
    83  201  -3.7525   0.0000  -1.8763  0.25017   4.4442E-02 -9.9406E-03  4.5540E-02  -12.608
    84  201  -3.7525   0.0000  -1.6261  0.25017   3.3473E-02  2.1445E-03  3.3542E-02    3.666
    85  201  -3.7525   0.0000  -1.3759  0.25017  -4.4446E-02  8.3478E-03  4.5224E-02  169.363
    86  201  -3.7525   0.0000  -1.1258  0.25017  -3.7295E-02 -6.3672E-03  3.7834E-02 -170.312
    87  201  -3.7525   0.0000  -0.8756  0.25017   3.8823E-02 -1.3542E-02  4.1117E-02  -19.229
    88  201  -3.7525   0.0000  -0.6254  0.25017   3.3381E-02  2.5042E-03  3.3475E-02    4.290
    89  201  -3.7525   0.0000  -0.3753  0.25017  -3.9791E-02  9.8548E-03  4.0993E-02  166.090
    90  201  -3.7525   0.0000  -0.1251  0.25017  -3.7394E-02 -3.8864E-03  3.7595E-02 -174.066
    91  201  -3.7525   0.0000   0.1251  0.25017   1.5522E-02  8.7055E-03  1.7796E-02   29.286
    92  201  -3.7525   0.0000   0.3753  0.25017   2.9175E-02  3.2025E-03  2.9351E-02    6.264
    93  201  -3.7525   0.0000   0.6254  0.25017  -1.9357E-02 -1.0723E-02  2.2129E-02 -151.014
    94  201  -3.7525   0.0000   0.8756  0.25017  -2.9828E-02 -3.4788E-03  3.0030E-02 -173.348
    95  201  -3.7525   0.0000   1.1258  0.25017   2.1326E-02  1.1387E-02  2.4176E-02   28.099
    96  201  -3.7525   0.0000   1.3759  0.25017   3.1235E-02  5.5423E-03  3.1723E-02   10.062
    97  201  -3.7525   0.0000   1.6261  0.25017  -2.2456E-02 -8.6141E-03  2.4052E-02 -159.014
    98  201  -3.7525   0.0000   1.8763  0.25017  -3.4098E-02 -3.5253E-03  3.4280E-02 -174.097
    99  201  -3.7525   0.0000   2.1264  0.25017   1.9093E-02  1.0027E-02  2.1566E-02   27.708
   100  201  -3.7525   0.0000   2.3766  0.25017   2.8268E-02  6.4253E-03  2.8989E-02   12.806
   101  202  -1.2508   0.0000  -2.3766  0.25017   1.0911E-01 -1.7033E-01  2.0228E-01  -57.356
   102  202  -1.2508   0.0000  -2.1264  0.25017   1.1545E-01 -1.3409E-01  1.7694E-01  -49.272
   103  202  -1.2508   0.0000  -1.8763  0.25017  -9.8434E-02  1.7975E-01  2.0494E-01  118.705
   104  202  -1.2508   0.0000  -1.6261  0.25017  -1.1820E-01  1.2917E-01  1.7509E-01  132.461
   105  202  -1.2508   0.0000  -1.3759  0.25017   9.3297E-02 -1.8038E-01  2.0308E-01  -62.651
   106  202  -1.2508   0.0000  -1.1258  0.25017   1.2014E-01 -1.2353E-01  1.7232E-01  -45.796
   107  202  -1.2508   0.0000  -0.8756  0.25017  -9.1438E-02  1.8510E-01  2.0645E-01  116.289
   108  202  -1.2508   0.0000  -0.6254  0.25017  -1.2495E-01  1.2174E-01  1.7445E-01  135.746
   109  202  -1.2508   0.0000  -0.3753  0.25017   9.0213E-02 -1.9007E-01  2.1040E-01  -64.610
   110  202  -1.2508   0.0000  -0.1251  0.25017   1.2831E-01 -1.4878E-01  1.9646E-01  -49.225
   111  202  -1.2508   0.0000   0.1251  0.25017  -1.2828E-01  5.1927E-02  1.3840E-01  157.963
   112  202  -1.2508   0.0000   0.3753  0.25017  -1.2691E-01  1.1801E-01  1.7330E-01  137.080
   113  202  -1.2508   0.0000   0.6254  0.25017   1.2855E-01 -5.6556E-02  1.4044E-01  -23.748
   114  202  -1.2508   0.0000   0.8756  0.25017   1.2551E-01 -1.1471E-01  1.7003E-01  -42.425
   115  202  -1.2508   0.0000   1.1258  0.25017  -1.2740E-01  6.1736E-02  1.4157E-01  154.147
   116  202  -1.2508   0.0000   1.3759  0.25017  -1.2475E-01  1.1301E-01  1.6833E-01  137.826
   117  202  -1.2508   0.0000   1.6261  0.25017   1.2875E-01 -6.6217E-02  1.4478E-01  -27.217
   118  202  -1.2508   0.0000   1.8763  0.25017   1.2845E-01 -1.1099E-01  1.6976E-01  -40.829
   119  202  -1.2508   0.0000   2.1264  0.25017  -1.2843E-01  7.1665E-02  1.4707E-01  150.838
   120  202  -1.2508   0.0000   2.3766  0.25017  -1.3396E-01  1.0141E-01  1.6802E-01  142.874
   121  203   1.2508   0.0000  -2.3766  0.25017  -8.2278E-02  4.3764E-02  9.3193E-02  151.991
   122  203   1.2508   0.0000  -2.1264  0.25017  -7.0598E-02  2.6577E-02  7.5434E-02  159.371
   123  203   1.2508   0.0000  -1.8763  0.25017   8.7284E-02 -5.0472E-02  1.0083E-01  -30.039
   124  203   1.2508   0.0000  -1.6261  0.25017   7.4365E-02 -2.4877E-02  7.8416E-02  -18.496
   125  203   1.2508   0.0000  -1.3759  0.25017  -8.6923E-02  4.8013E-02  9.9302E-02  151.085
   126  203   1.2508   0.0000  -1.1258  0.25017  -8.0273E-02  1.4319E-02  8.1540E-02  169.886
   127  203   1.2508   0.0000  -0.8756  0.25017   7.8893E-02 -5.9535E-02  9.8836E-02  -37.039
   128  203   1.2508   0.0000  -0.6254  0.25017   7.4431E-02 -1.8338E-02  7.6656E-02  -13.841
   129  203   1.2508   0.0000  -0.3753  0.25017  -8.4342E-02  6.1425E-02  1.0434E-01  143.935
   130  203   1.2508   0.0000  -0.1251  0.25017  -8.4355E-02  2.9843E-02  8.9478E-02  160.517
   131  203   1.2508   0.0000   0.1251  0.25017   6.5366E-02 -8.4968E-04  6.5372E-02   -0.745
   132  203   1.2508   0.0000   0.3753  0.25017   7.9169E-02 -2.6251E-02  8.3408E-02  -18.344
   133  203   1.2508   0.0000   0.6254  0.25017  -6.3231E-02 -7.6029E-03  6.3686E-02 -173.144
   134  203   1.2508   0.0000   0.8756  0.25017  -7.5391E-02  1.9119E-02  7.7777E-02  165.770
   135  203   1.2508   0.0000   1.1258  0.25017   6.5190E-02  5.9084E-03  6.5457E-02    5.179
   136  203   1.2508   0.0000   1.3759  0.25017   7.3916E-02 -1.3279E-02  7.5100E-02  -10.184
   137  203   1.2508   0.0000   1.6261  0.25017  -7.0469E-02  2.3893E-03  7.0510E-02  178.058
   138  203   1.2508   0.0000   1.8763  0.25017  -8.0830E-02  1.8382E-02  8.2894E-02  167.188
   139  203   1.2508   0.0000   2.1264  0.25017   6.6167E-02  1.2483E-03  6.6179E-02    1.081
   140  203   1.2508   0.0000   2.3766  0.25017   7.7391E-02 -9.8391E-03  7.8014E-02   -7.245
   141  204   3.7525   0.0000  -2.3766  0.25017   2.5744E-01 -2.0417E-01  3.2858E-01  -38.418
   142  204   3.7525   0.0000  -2.1264  0.25017   2.4865E-01 -1.4490E-01  2.8779E-01  -30.231
   143  204   3.7525   0.0000  -1.8763  0.25017  -2.4443E-01  2.2312E-01  3.3095E-01  137.610
   144  204   3.7525   0.0000  -1.6261  0.25017  -2.4688E-01  1.3401E-01  2.8091E-01  151.505
   145  204   3.7525   0.0000  -1.3759  0.25017   2.4156E-01 -2.2781E-01  3.3204E-01  -43.322
   146  204   3.7525   0.0000  -1.1258  0.25017   2.5110E-01 -1.2409E-01  2.8009E-01  -26.297
   147  204   3.7525   0.0000  -0.8756  0.25017  -2.3848E-01  2.3630E-01  3.3572E-01  135.263
   148  204   3.7525   0.0000  -0.6254  0.25017  -2.5557E-01  1.1759E-01  2.8133E-01  155.293
   149  204   3.7525   0.0000  -0.3753  0.25017   2.4183E-01 -2.4721E-01  3.4582E-01  -45.631
   150  204   3.7525   0.0000  -0.1251  0.25017   2.7852E-01 -1.6073E-01  3.2157E-01  -29.988
   151  204   3.7525   0.0000   0.1251  0.25017  -2.2404E-01  9.1349E-03  2.2423E-01  177.665
   152  204   3.7525   0.0000   0.3753  0.25017  -2.5778E-01  1.1414E-01  2.8192E-01  156.117
   153  204   3.7525   0.0000   0.6254  0.25017   2.2842E-01 -1.4792E-02  2.2890E-01   -3.705
   154  204   3.7525   0.0000   0.8756  0.25017   2.5527E-01 -1.0972E-01  2.7785E-01  -23.260
   155  204   3.7525   0.0000   1.1258  0.25017  -2.2851E-01  2.1146E-02  2.2948E-01  174.713
   156  204   3.7525   0.0000   1.3759  0.25017  -2.5400E-01  1.0370E-01  2.7435E-01  157.791
   157  204   3.7525   0.0000   1.6261  0.25017   2.3001E-01 -3.0791E-02  2.3206E-01   -7.625
   158  204   3.7525   0.0000   1.8763  0.25017   2.5484E-01 -1.0047E-01  2.7393E-01  -21.517
   159  204   3.7525   0.0000   2.1264  0.25017  -2.3511E-01  3.8675E-02  2.3827E-01  170.659
   160  204   3.7525   0.0000   2.3766  0.25017  -2.5923E-01  8.2149E-02  2.7194E-01  162.417
   161  301  -3.7525   2.5017  -2.3766  0.25017  -6.4083E-02 -1.4931E-01  1.6249E-01 -113.228
   162  301  -3.7525   2.5017  -2.1264  0.25017  -3.5563E-02 -1.3997E-01  1.4441E-01 -104.256
   163  301  -3.7525   2.5017  -1.8763  0.25017   7.6428E-02  1.4394E-01  1.6297E-01   62.032
   164  301  -3.7525   2.5017  -1.6261  0.25017   2.9863E-02  1.3765E-01  1.4085E-01   77.759
   165  301  -3.7525   2.5017  -1.3759  0.25017  -8.3374E-02 -1.4321E-01  1.6571E-01 -120.208
   166  301  -3.7525   2.5017  -1.1258  0.25017  -3.1674E-02 -1.3921E-01  1.4277E-01 -102.818
   167  301  -3.7525   2.5017  -0.8756  0.25017   7.9896E-02  1.4221E-01  1.6312E-01   60.673
   168  301  -3.7525   2.5017  -0.6254  0.25017   2.0568E-02  1.4198E-01  1.4346E-01   81.757
   169  301  -3.7525   2.5017  -0.3753  0.25017  -9.1206E-02 -1.4147E-01  1.6832E-01 -122.810
   170  301  -3.7525   2.5017  -0.1251  0.25017  -4.2973E-02 -1.5362E-01  1.5952E-01 -105.628
   171  301  -3.7525   2.5017   0.1251  0.25017  -2.0767E-02  1.0970E-01  1.1164E-01  100.720
   172  301  -3.7525   2.5017   0.3753  0.25017   2.3824E-02  1.3536E-01  1.3744E-01   80.018
   173  301  -3.7525   2.5017   0.6254  0.25017   2.0549E-02 -1.1821E-01  1.1999E-01  -80.139
   174  301  -3.7525   2.5017   0.8756  0.25017  -1.9875E-02 -1.3798E-01  1.3940E-01  -98.197
   175  301  -3.7525   2.5017   1.1258  0.25017  -1.6071E-02  1.1834E-01  1.1942E-01   97.734
   176  301  -3.7525   2.5017   1.3759  0.25017   1.7881E-02  1.3934E-01  1.4048E-01   82.687
   177  301  -3.7525   2.5017   1.6261  0.25017   1.1778E-02 -1.1574E-01  1.1634E-01  -84.190
   178  301  -3.7525   2.5017   1.8763  0.25017  -1.6605E-02 -1.3390E-01  1.3492E-01  -97.070
   179  301  -3.7525   2.5017   2.1264  0.25017  -8.9895E-03  1.2540E-01  1.2573E-01   94.100
   180  301  -3.7525   2.5017   2.3766  0.25017   7.8094E-03  1.3966E-01  1.3987E-01   86.799
   181  302  -1.2508   2.5017  -2.3766  0.25017   1.0376E-01 -4.0464E-03  1.0384E-01   -2.233
   182  302  -1.2508   2.5017  -2.1264  0.25017   9.0184E-02  6.4292E-03  9.0412E-02    4.078
   183  302  -1.2508   2.5017  -1.8763  0.25017  -1.0287E-01  6.6703E-03  1.0309E-01  176.290
   184  302  -1.2508   2.5017  -1.6261  0.25017  -8.5632E-02 -1.2044E-02  8.6474E-02 -171.994
   185  302  -1.2508   2.5017  -1.3759  0.25017   1.0346E-01 -8.6763E-03  1.0383E-01   -4.794
   186  302  -1.2508   2.5017  -1.1258  0.25017   8.1761E-02  1.6883E-02  8.3486E-02   11.667
   187  302  -1.2508   2.5017  -0.8756  0.25017  -1.0973E-01  1.2214E-02  1.1041E-01  173.649
   188  302  -1.2508   2.5017  -0.6254  0.25017  -8.6198E-02 -2.0668E-02  8.8641E-02 -166.517
   189  302  -1.2508   2.5017  -0.3753  0.25017   1.1111E-01 -1.7105E-02  1.1242E-01   -8.752
   190  302  -1.2508   2.5017  -0.1251  0.25017   1.0065E-01  1.1355E-02  1.0129E-01    6.437
   191  302  -1.2508   2.5017   0.1251  0.25017  -6.1138E-02 -4.1212E-02  7.3731E-02 -146.017
   192  302  -1.2508   2.5017   0.3753  0.25017  -8.9293E-02 -1.9808E-02  9.1464E-02 -167.493
   193  302  -1.2508   2.5017   0.6254  0.25017   6.0090E-02  4.1187E-02  7.2850E-02   34.428
   194  302  -1.2508   2.5017   0.8756  0.25017   8.6907E-02  2.1570E-02  8.9544E-02   13.939
   195  302  -1.2508   2.5017   1.1258  0.25017  -5.9555E-02 -3.8999E-02  7.1188E-02 -146.782
   196  302  -1.2508   2.5017   1.3759  0.25017  -8.3342E-02 -2.2925E-02  8.6438E-02 -164.620
   197  302  -1.2508   2.5017   1.6261  0.25017   6.1864E-02  3.7379E-02  7.2280E-02   31.141
   198  302  -1.2508   2.5017   1.8763  0.25017   8.1117E-02  2.6278E-02  8.5267E-02   17.950
   199  302  -1.2508   2.5017   2.1264  0.25017  -6.6652E-02 -3.2602E-02  7.4198E-02 -153.935
   200  302  -1.2508   2.5017   2.3766  0.25017  -8.0067E-02 -2.8190E-02  8.4885E-02 -160.604
   201  303   1.2508   2.5017  -2.3766  0.25017  -4.5648E-02  1.2197E-01  1.3023E-01  110.519
   202  303   1.2508   2.5017  -2.1264  0.25017  -4.9845E-02  9.8598E-02  1.1048E-01  116.818
   203  303   1.2508   2.5017  -1.8763  0.25017   4.2096E-02 -1.2610E-01  1.3294E-01  -71.540
   204  303   1.2508   2.5017  -1.6261  0.25017   5.2364E-02 -9.5973E-02  1.0933E-01  -61.383
   205  303   1.2508   2.5017  -1.3759  0.25017  -4.2332E-02  1.2210E-01  1.2923E-01  109.121
   206  303   1.2508   2.5017  -1.1258  0.25017  -5.9123E-02  8.5904E-02  1.0428E-01  124.537
   207  303   1.2508   2.5017  -0.8756  0.25017   3.5777E-02 -1.3099E-01  1.3578E-01  -74.723
   208  303   1.2508   2.5017  -0.6254  0.25017   5.6873E-02 -8.7865E-02  1.0467E-01  -57.086
   209  303   1.2508   2.5017  -0.3753  0.25017  -4.1013E-02  1.3467E-01  1.4078E-01  106.937
   210  303   1.2508   2.5017  -0.1251  0.25017  -6.2787E-02  1.0729E-01  1.2431E-01  120.337
   211  303   1.2508   2.5017   0.1251  0.25017   7.2606E-02 -4.7310E-02  8.6659E-02  -33.088
   212  303   1.2508   2.5017   0.3753  0.25017   6.6537E-02 -9.2145E-02  1.1366E-01  -54.167
   213  303   1.2508   2.5017   0.6254  0.25017  -6.8058E-02  4.3236E-02  8.0631E-02  147.573
   214  303   1.2508   2.5017   0.8756  0.25017  -6.3428E-02  8.4823E-02  1.0592E-01  126.788
   215  303   1.2508   2.5017   1.1258  0.25017   6.6113E-02 -4.6919E-02  8.1070E-02  -35.362
   216  303   1.2508   2.5017   1.3759  0.25017   6.0550E-02 -7.9611E-02  1.0002E-01  -52.744
   217  303   1.2508   2.5017   1.6261  0.25017  -6.8945E-02  5.6126E-02  8.8902E-02  140.852
   218  303   1.2508   2.5017   1.8763  0.25017  -6.5285E-02  8.4430E-02  1.0673E-01  127.713
   219  303   1.2508   2.5017   2.1264  0.25017   6.5187E-02 -5.5410E-02  8.5555E-02  -40.365
   220  303   1.2508   2.5017   2.3766  0.25017   6.6515E-02 -7.6106E-02  1.0108E-01  -48.847
   221  304   3.7525   2.5017  -2.3766  0.25017   2.1193E-03 -4.8148E-02  4.8194E-02  -87.480
   222  304   3.7525   2.5017  -2.1264  0.25017   9.4793E-03 -4.2981E-02  4.4014E-02  -77.563
   223  304   3.7525   2.5017  -1.8763  0.25017   4.1147E-03  4.7294E-02  4.7473E-02   85.028
   224  304   3.7525   2.5017  -1.6261  0.25017  -8.5653E-03  4.1903E-02  4.2770E-02  101.553
   225  304   3.7525   2.5017  -1.3759  0.25017  -6.2542E-03 -4.6902E-02  4.7317E-02  -97.595
   226  304   3.7525   2.5017  -1.1258  0.25017   5.1065E-03 -4.2390E-02  4.2696E-02  -83.131
   227  304   3.7525   2.5017  -0.8756  0.25017   1.3702E-03  4.4669E-02  4.4690E-02   88.243
   228  304   3.7525   2.5017  -0.6254  0.25017  -1.0534E-02  3.9934E-02  4.1300E-02  104.777
   229  304   3.7525   2.5017  -0.3753  0.25017  -3.7136E-03 -4.6107E-02  4.6256E-02  -94.605
   230  304   3.7525   2.5017  -0.1251  0.25017   8.6063E-03 -4.5137E-02  4.5950E-02  -79.205
   231  304   3.7525   2.5017   0.1251  0.25017  -1.8240E-02  2.1735E-02  2.8375E-02  130.003
   232  304   3.7525   2.5017   0.3753  0.25017  -1.1969E-02  3.5844E-02  3.7790E-02  108.464
   233  304   3.7525   2.5017   0.6254  0.25017   1.7023E-02 -2.6024E-02  3.1097E-02  -56.811
   234  304   3.7525   2.5017   0.8756  0.25017   1.2122E-02 -3.6173E-02  3.8150E-02  -71.474
   235  304   3.7525   2.5017   1.1258  0.25017  -1.4772E-02  2.8399E-02  3.2011E-02  117.482
   236  304   3.7525   2.5017   1.3759  0.25017  -1.0606E-02  3.8133E-02  3.9581E-02  105.543
   237  304   3.7525   2.5017   1.6261  0.25017   1.4239E-02 -2.7357E-02  3.0841E-02  -62.503
   238  304   3.7525   2.5017   1.8763  0.25017   9.2276E-03 -3.5825E-02  3.6995E-02  -75.556
   239  304   3.7525   2.5017   2.1264  0.25017  -1.6035E-02  3.1473E-02  3.5323E-02  116.998
   240  304   3.7525   2.5017   2.3766  0.25017  -1.2767E-02  3.7213E-02  3.9342E-02  108.936



                                        - - - POWER BUDGET - - -

                                           INPUT POWER   = 3.1908E+01 WATTS
                                           RADIATED POWER= 3.1908E+01 WATTS
                                           STRUCTURE LOSS= 0.0000E+00 WATTS
                                           NETWORK LOSS  = 0.0000E+00 WATTS
                                           EFFICIENCY    = 100.00 PERCENT



                                                - - - RADIATION PATTERNS - - -

  - - ANGLES - -       - DIRECTIVE GAINS -       - - - POLARIZATION - - -    - - - E(THETA) - - -    - - - E(PHI) - - -
  THETA     PHI        VERT.   HOR.    TOTAL      AXIAL     TILT   SENSE     MAGNITUDE    PHASE      MAGNITUDE    PHASE 
 DEGREES  DEGREES       DB      DB      DB        RATIO     DEG.              VOLTS/M    DEGREES      VOLTS/M    DEGREES
    0.00     0.00    -999.99 -999.99 -999.99    0.00000     0.00            0.00000E+00     0.00    0.00000E+00     0.00
    5.00     0.00      -6.89 -999.99   -6.89    0.00000     0.00  LINEAR    1.97759E+01   120.99    0.00000E+00     0.00
   10.00     0.00       5.56 -999.99    5.56    0.00000     0.00  LINEAR    8.29743E+01  -138.45    0.00000E+00     0.00
   15.00     0.00       9.24 -999.99    9.24    0.00000     0.00  LINEAR    1.26720E+02   -95.14    0.00000E+00     0.00
   20.00     0.00       3.08 -999.99    3.08    0.00000     0.00  LINEAR    6.23452E+01   141.78    0.00000E+00     0.00
   25.00     0.00       5.71 -999.99    5.71    0.00000     0.00  LINEAR    8.43827E+01   175.30    0.00000E+00     0.00
   30.00     0.00       5.52 -999.99    5.52    0.00000     0.00  LINEAR    8.26087E+01   -41.12    0.00000E+00     0.00
   35.00     0.00       6.07 -999.99    6.07    0.00000     0.00  LINEAR    8.79655E+01    45.40    0.00000E+00     0.00
   40.00     0.00     -20.14 -999.99  -20.14    0.00000     0.00  LINEAR    4.30159E+00   107.46    0.00000E+00     0.00
   45.00     0.00      -9.74 -999.99   -9.74    0.00000     0.00  LINEAR    1.42518E+01  -110.59    0.00000E+00     0.00
   50.00     0.00      -6.48 -999.99   -6.48    0.00000     0.00  LINEAR    2.07335E+01   136.51    0.00000E+00     0.00
   55.00     0.00      -6.13 -999.99   -6.13    0.00000     0.00  LINEAR    2.15996E+01     1.52    0.00000E+00     0.00
   60.00     0.00      -1.33 -999.99   -1.33    0.00000     0.00  LINEAR    3.75423E+01    93.17    0.00000E+00     0.00
   65.00     0.00      -1.54 -999.99   -1.54    0.00000     0.00  LINEAR    3.66495E+01   159.55    0.00000E+00     0.00
   70.00     0.00      -7.26 -999.99   -7.26    0.00000     0.00  LINEAR    1.89580E+01   -27.75    0.00000E+00     0.00
   75.00     0.00      -1.73 -999.99   -1.73    0.00000     0.00  LINEAR    3.58429E+01    25.66    0.00000E+00     0.00
   80.00     0.00      -2.77 -999.99   -2.77    0.00000     0.00  LINEAR    3.17917E+01  -114.08    0.00000E+00     0.00
   85.00     0.00       6.14 -999.99    6.14    0.00000     0.00  LINEAR    8.87152E+01  -107.64    0.00000E+00     0.00
   90.00     0.00      -0.91 -999.99   -0.91    0.00000     0.00  LINEAR    3.93848E+01   -77.62    0.00000E+00     0.00
    0.00     5.00    -999.99 -999.99 -999.99    0.00000     0.00            0.00000E+00     0.00    0.00000E+00     0.00
    5.00     5.00      -7.19 -999.99   -7.19    0.00000     0.00  LINEAR    1.91182E+01   121.60    0.00000E+00     0.00
   10.00     5.00       5.01 -999.99    5.01    0.00000     0.00  LINEAR    7.78883E+01  -142.57    0.00000E+00     0.00
   15.00     5.00       9.10 -999.99    9.10    0.00000     0.00  LINEAR    1.24650E+02   -86.86    0.00000E+00     0.00
   20.00     5.00       0.58 -999.99    0.58    0.00000     0.00  LINEAR    4.67476E+01   142.65    0.00000E+00     0.00
   25.00     5.00       7.98 -999.99    7.98    0.00000     0.00  LINEAR    1.09652E+02   160.40    0.00000E+00     0.00
   30.00     5.00       4.23 -999.99    4.23    0.00000     0.00  LINEAR    7.11798E+01   -36.79    0.00000E+00     0.00
   35.00     5.00       3.73 -999.99    3.73    0.00000     0.00  LINEAR    6.72211E+01    31.73    0.00000E+00     0.00
   40.00     5.00     -20.03 -999.99  -20.03    0.00000     0.00  LINEAR    4.35978E+00    93.59    0.00000E+00     0.00
   45.00     5.00      -6.62 -999.99   -6.62    0.00000     0.00  LINEAR    2.04166E+01   -43.99    0.00000E+00     0.00
   50.00     5.00      -7.45 -999.99   -7.45    0.00000     0.00  LINEAR    1.85441E+01   130.06    0.00000E+00     0.00
   55.00     5.00      -3.03 -999.99   -3.03    0.00000     0.00  LINEAR    3.08629E+01   -23.14    0.00000E+00     0.00
   60.00     5.00      -7.41 -999.99   -7.41    0.00000     0.00  LINEAR    1.86428E+01     8.24    0.00000E+00     0.00
   65.00     5.00      -5.07 -999.99   -5.07    0.00000     0.00  LINEAR    2.43862E+01   164.79    0.00000E+00     0.00
   70.00     5.00      -8.66 -999.99   -8.66    0.00000     0.00  LINEAR    1.61472E+01   -29.79    0.00000E+00     0.00
   75.00     5.00      -5.05 -999.99   -5.05    0.00000     0.00  LINEAR    2.44525E+01     5.22    0.00000E+00     0.00
   80.00     5.00      -8.94 -999.99   -8.94    0.00000     0.00  LINEAR    1.56190E+01  -136.68    0.00000E+00     0.00
   85.00     5.00      -1.06 -999.99   -1.06    0.00000     0.00  LINEAR    3.87059E+01  -117.30    0.00000E+00     0.00
   90.00     5.00      -8.31 -999.99   -8.31    0.00000     0.00  LINEAR    1.68043E+01   -82.47    0.00000E+00     0.00
    0.00    10.00    -999.99 -999.99 -999.99    0.00000     0.00            0.00000E+00     0.00    0.00000E+00     0.00
    5.00    10.00      -7.69 -999.99   -7.69    0.00000     0.00  LINEAR    1.80459E+01   121.22    0.00000E+00     0.00
   10.00    10.00       4.32 -999.99    4.32    0.00000     0.00  LINEAR    7.19374E+01  -148.26    0.00000E+00     0.00
   15.00    10.00       8.57 -999.99    8.57    0.00000     0.00  LINEAR    1.17353E+02   -78.58    0.00000E+00     0.00
   20.00    10.00      -4.98 -999.99   -4.98    0.00000     0.00  LINEAR    2.46415E+01   121.07    0.00000E+00     0.00
   25.00    10.00       9.37 -999.99    9.37    0.00000     0.00  LINEAR    1.28596E+02   149.84    0.00000E+00     0.00
   30.00    10.00      -2.06 -999.99   -2.06    0.00000     0.00  LINEAR    3.44972E+01   -27.55    0.00000E+00     0.00
   35.00    10.00       0.70 -999.99    0.70    0.00000     0.00  LINEAR    4.74323E+01    13.17    0.00000E+00     0.00
   40.00    10.00     -27.87 -999.99  -27.87    0.00000     0.00  LINEAR    1.76837E+00    50.57    0.00000E+00     0.00
   45.00    10.00      -3.34 -999.99   -3.34    0.00000     0.00  LINEAR    2.97886E+01     4.62    0.00000E+00     0.00
   50.00    10.00      -8.52 -999.99   -8.52    0.00000     0.00  LINEAR    1.64104E+01    91.96    0.00000E+00     0.00
   55.00    10.00      -4.19 -999.99   -4.19    0.00000     0.00  LINEAR    2.69855E+01   -42.23    0.00000E+00     0.00
   60.00    10.00      -0.81 -999.99   -0.81    0.00000     0.00  LINEAR    3.98262E+01   -32.31    0.00000E+00     0.00
   65.00    10.00     -16.67 -999.99  -16.67    0.00000     0.00  LINEAR    6.41482E+00   -78.02    0.00000E+00     0.00
   70.00    10.00     -14.60 -999.99  -14.60    0.00000     0.00  LINEAR    8.14737E+00    41.35    0.00000E+00     0.00
   75.00    10.00      -9.41 -999.99   -9.41    0.00000     0.00  LINEAR    1.47990E+01    37.40    0.00000E+00     0.00
   80.00    10.00     -11.63 -999.99  -11.63    0.00000     0.00  LINEAR    1.14611E+01  -128.35    0.00000E+00     0.00
   85.00    10.00      -4.72 -999.99   -4.72    0.00000     0.00  LINEAR    2.54142E+01  -123.51    0.00000E+00     0.00
   90.00    10.00     -14.62 -999.99  -14.62    0.00000     0.00  LINEAR    8.12379E+00  -109.49    0.00000E+00     0.00
    0.00    15.00    -999.99 -999.99 -999.99    0.00000     0.00            0.00000E+00     0.00    0.00000E+00     0.00
    5.00    15.00      -8.46 -999.99   -8.46    0.00000     0.00  LINEAR    1.65116E+01   119.63    0.00000E+00     0.00
   10.00    15.00       3.60 -999.99    3.60    0.00000     0.00  LINEAR    6.62355E+01  -155.49    0.00000E+00     0.00
   15.00    15.00       7.53 -999.99    7.53    0.00000     0.00  LINEAR    1.04101E+02   -70.53    0.00000E+00     0.00
   20.00    15.00      -3.87 -999.99   -3.87    0.00000     0.00  LINEAR    2.80228E+01    43.01    0.00000E+00     0.00
   25.00    15.00       9.30 -999.99    9.30    0.00000     0.00  LINEAR    1.27644E+02   141.43    0.00000E+00     0.00
   30.00    15.00      -9.90 -999.99   -9.90    0.00000     0.00  LINEAR    1.39990E+01   109.47    0.00000E+00     0.00
   35.00    15.00      -2.53 -999.99   -2.53    0.00000     0.00  LINEAR    3.26835E+01    12.39    0.00000E+00     0.00
   40.00    15.00     -20.29 -999.99  -20.29    0.00000     0.00  LINEAR    4.23190E+00   -65.23    0.00000E+00     0.00
   45.00    15.00      -3.27 -999.99   -3.27    0.00000     0.00  LINEAR    3.00061E+01    38.99    0.00000E+00     0.00
   50.00    15.00      -5.37 -999.99   -5.37    0.00000     0.00  LINEAR    2.35739E+01    74.86    0.00000E+00     0.00
   55.00    15.00      -8.46 -999.99   -8.46    0.00000     0.00  LINEAR    1.65199E+01   -76.01    0.00000E+00     0.00
   60.00    15.00      -6.66 -999.99   -6.66    0.00000     0.00  LINEAR    2.03124E+01   -15.82    0.00000E+00     0.00
   65.00    15.00     -17.18 -999.99  -17.18    0.00000     0.00  LINEAR    6.05415E+00    15.79    0.00000E+00     0.00
   70.00    15.00     -18.14 -999.99  -18.14    0.00000     0.00  LINEAR    5.41625E+00    90.92    0.00000E+00     0.00
   75.00    15.00      -8.24 -999.99   -8.24    0.00000     0.00  LINEAR    1.69416E+01    65.04    0.00000E+00     0.00
   80.00    15.00      -6.80 -999.99   -6.80    0.00000     0.00  LINEAR    1.99885E+01  -101.97    0.00000E+00     0.00
   85.00    15.00       2.09 -999.99    2.09    0.00000     0.00  LINEAR    5.56416E+01  -104.77    0.00000E+00     0.00
   90.00    15.00      -6.21 -999.99   -6.21    0.00000     0.00  LINEAR    2.13975E+01   -83.19    0.00000E+00     0.00
    0.00    20.00    -999.99 -999.99 -999.99    0.00000     0.00            0.00000E+00     0.00    0.00000E+00     0.00
    5.00    20.00      -9.59 -999.99   -9.59    0.00000     0.00  LINEAR    1.45065E+01   116.41    0.00000E+00     0.00
   10.00    20.00       2.97 -999.99    2.97    0.00000     0.00  LINEAR    6.15546E+01  -163.59    0.00000E+00     0.00
   15.00    20.00       5.80 -999.99    5.80    0.00000     0.00  LINEAR    8.52744E+01   -63.14    0.00000E+00     0.00
   20.00    20.00       2.63 -999.99    2.63    0.00000     0.00  LINEAR    5.92149E+01    25.23    0.00000E+00     0.00
   25.00    20.00       7.64 -999.99    7.64    0.00000     0.00  LINEAR    1.05444E+02   129.81    0.00000E+00     0.00
   30.00    20.00      -1.24 -999.99   -1.24    0.00000     0.00  LINEAR    3.79356E+01   141.57    0.00000E+00     0.00
   35.00    20.00      -4.79 -999.99   -4.79    0.00000     0.00  LINEAR    2.51946E+01    46.41    0.00000E+00     0.00
   40.00    20.00     -15.30 -999.99  -15.30    0.00000     0.00  LINEAR    7.51370E+00   -79.00    0.00000E+00     0.00
   45.00    20.00     -16.90 -999.99  -16.90    0.00000     0.00  LINEAR    6.24754E+00    99.64    0.00000E+00     0.00
   50.00    20.00      -5.53 -999.99   -5.53    0.00000     0.00  LINEAR    2.31507E+01    92.32    0.00000E+00     0.00
   55.00    20.00      -7.74 -999.99   -7.74    0.00000     0.00  LINEAR    1.79493E+01   -82.55    0.00000E+00     0.00
   60.00    20.00     -10.31 -999.99  -10.31    0.00000     0.00  LINEAR    1.33401E+01    21.18    0.00000E+00     0.00
   65.00    20.00      -5.37 -999.99   -5.37    0.00000     0.00  LINEAR    2.35683E+01    93.35    0.00000E+00     0.00
   70.00    20.00     -13.61 -999.99  -13.61    0.00000     0.00  LINEAR    9.13018E+00  -113.11    0.00000E+00     0.00
   75.00    20.00     -10.75 -999.99  -10.75    0.00000     0.00  LINEAR    1.26853E+01   -34.11    0.00000E+00     0.00
   80.00    20.00     -10.59 -999.99  -10.59    0.00000     0.00  LINEAR    1.29306E+01  -163.21    0.00000E+00     0.00
   85.00    20.00       0.04 -999.99    0.04    0.00000     0.00  LINEAR    4.39664E+01  -145.14    0.00000E+00     0.00
   90.00    20.00      -7.10 -999.99   -7.10    0.00000     0.00  LINEAR    1.93142E+01  -113.92    0.00000E+00     0.00
    0.00    25.00    -999.99 -999.99 -999.99    0.00000     0.00            0.00000E+00     0.00    0.00000E+00     0.00
    5.00    25.00     -11.17 -999.99  -11.17    0.00000     0.00  LINEAR    1.20893E+01   110.49    0.00000E+00     0.00
   10.00    25.00       2.43 -999.99    2.43    0.00000     0.00  LINEAR    5.78549E+01  -171.31    0.00000E+00     0.00
   15.00    25.00       3.14 -999.99    3.14    0.00000     0.00  LINEAR    6.27923E+01   -57.74    0.00000E+00     0.00
   20.00    25.00       5.74 -999.99    5.74    0.00000     0.00  LINEAR    8.46666E+01    27.64    0.00000E+00     0.00
   25.00    25.00       5.72 -999.99    5.72    0.00000     0.00  LINEAR    8.44822E+01   107.01    0.00000E+00     0.00
   30.00    25.00      -2.28 -999.99   -2.28    0.00000     0.00  LINEAR    3.36450E+01   166.68    0.00000E+00     0.00
   35.00    25.00      -7.47 -999.99   -7.47    0.00000     0.00  LINEAR    1.85140E+01    62.44    0.00000E+00     0.00
   40.00    25.00     -17.90 -999.99  -17.90    0.00000     0.00  LINEAR    5.56862E+00   -79.96    0.00000E+00     0.00
   45.00    25.00      -0.23 -999.99   -0.23    0.00000     0.00  LINEAR    4.25822E+01  -119.67    0.00000E+00     0.00
   50.00    25.00     -13.56 -999.99  -13.56    0.00000     0.00  LINEAR    9.17753E+00   178.68    0.00000E+00     0.00
   55.00    25.00      -7.51 -999.99   -7.51    0.00000     0.00  LINEAR    1.84250E+01   -48.63    0.00000E+00     0.00
   60.00    25.00       0.39 -999.99    0.39    0.00000     0.00  LINEAR    4.57376E+01   -27.16    0.00000E+00     0.00
   65.00    25.00      -5.32 -999.99   -5.32    0.00000     0.00  LINEAR    2.36968E+01    33.48    0.00000E+00     0.00
   70.00    25.00     -12.37 -999.99  -12.37    0.00000     0.00  LINEAR    1.05238E+01   176.08    0.00000E+00     0.00
   75.00    25.00      -9.91 -999.99   -9.91    0.00000     0.00  LINEAR    1.39753E+01   -82.67    0.00000E+00     0.00
   80.00    25.00      -8.78 -999.99   -8.78    0.00000     0.00  LINEAR    1.59237E+01   137.32    0.00000E+00     0.00
   85.00    25.00       0.44 -999.99    0.44    0.00000     0.00  LINEAR    4.59949E+01   151.95    0.00000E+00     0.00
   90.00    25.00      -7.17 -999.99   -7.17    0.00000     0.00  LINEAR    1.91642E+01   178.98    0.00000E+00     0.00
    0.00    30.00    -999.99 -999.99 -999.99    0.00000     0.00            0.00000E+00     0.00    0.00000E+00     0.00
    5.00    30.00     -13.30 -999.99  -13.30    0.00000     0.00  LINEAR    9.46158E+00    99.42    0.00000E+00     0.00
   10.00    30.00       1.87 -999.99    1.87    0.00000     0.00  LINEAR    5.42256E+01  -177.35    0.00000E+00     0.00
   15.00    30.00      -0.70 -999.99   -0.70    0.00000     0.00  LINEAR    4.03467E+01   -59.08    0.00000E+00     0.00
   20.00    30.00       6.55 -999.99    6.55    0.00000     0.00  LINEAR    9.29859E+01    35.51    0.00000E+00     0.00
   25.00    30.00       6.53 -999.99    6.53    0.00000     0.00  LINEAR    9.27653E+01    84.72    0.00000E+00     0.00
   30.00    30.00      -5.15 -999.99   -5.15    0.00000     0.00  LINEAR    2.41826E+01  -154.61    0.00000E+00     0.00
   35.00    30.00      -9.67 -999.99   -9.67    0.00000     0.00  LINEAR    1.43674E+01   -58.24    0.00000E+00     0.00
   40.00    30.00     -32.58 -999.99  -32.58    0.00000     0.00  LINEAR    1.02737E+00     0.83    0.00000E+00     0.00
   45.00    30.00       3.90 -999.99    3.90    0.00000     0.00  LINEAR    6.85068E+01  -114.46    0.00000E+00     0.00
   50.00    30.00      -2.78 -999.99   -2.78    0.00000     0.00  LINEAR    3.17555E+01   -97.77    0.00000E+00     0.00
   55.00    30.00     -10.99 -999.99  -10.99    0.00000     0.00  LINEAR    1.23453E+01    73.10    0.00000E+00     0.00
   60.00    30.00      -1.40 -999.99   -1.40    0.00000     0.00  LINEAR    3.72293E+01   -30.37    0.00000E+00     0.00
   65.00    30.00      -1.22 -999.99   -1.22    0.00000     0.00  LINEAR    3.80103E+01   -21.01    0.00000E+00     0.00
   70.00    30.00      -5.74 -999.99   -5.74    0.00000     0.00  LINEAR    2.25942E+01   131.66    0.00000E+00     0.00
   75.00    30.00      -5.96 -999.99   -5.96    0.00000     0.00  LINEAR    2.20157E+01   149.90    0.00000E+00     0.00
   80.00    30.00      -9.60 -999.99   -9.60    0.00000     0.00  LINEAR    1.44892E+01   -22.02    0.00000E+00     0.00
   85.00    30.00      -6.03 -999.99   -6.03    0.00000     0.00  LINEAR    2.18512E+01   -18.38    0.00000E+00     0.00
   90.00    30.00     -15.63 -999.99  -15.63    0.00000     0.00  LINEAR    7.23230E+00     5.11    0.00000E+00     0.00
    0.00    35.00    -999.99 -999.99 -999.99    0.00000     0.00            0.00000E+00     0.00    0.00000E+00     0.00
    5.00    35.00     -15.67 -999.99  -15.67    0.00000     0.00  LINEAR    7.19909E+00    77.71    0.00000E+00     0.00
   10.00    35.00       1.06 -999.99    1.06    0.00000     0.00  LINEAR    4.94064E+01   179.07    0.00000E+00     0.00
   15.00    35.00      -4.69 -999.99   -4.69    0.00000     0.00  LINEAR    2.55031E+01   -82.05    0.00000E+00     0.00
   20.00    35.00       4.94 -999.99    4.94    0.00000     0.00  LINEAR    7.72826E+01    45.66    0.00000E+00     0.00
   25.00    35.00       8.17 -999.99    8.17    0.00000     0.00  LINEAR    1.12091E+02    82.11    0.00000E+00     0.00
   30.00    35.00      -6.87 -999.99   -6.87    0.00000     0.00  LINEAR    1.98342E+01   168.36    0.00000E+00     0.00
   35.00    35.00      -1.11 -999.99   -1.11    0.00000     0.00  LINEAR    3.84793E+01   -86.68    0.00000E+00     0.00
   40.00    35.00     -23.86 -999.99  -23.86    0.00000     0.00  LINEAR    2.80439E+00    68.05    0.00000E+00     0.00
   45.00    35.00       1.25 -999.99    1.25    0.00000     0.00  LINEAR    5.05308E+01  -135.80    0.00000E+00     0.00
   50.00    35.00      -2.50 -999.99   -2.50    0.00000     0.00  LINEAR    3.27944E+01   -91.99    0.00000E+00     0.00
   55.00    35.00      -2.87 -999.99   -2.87    0.00000     0.00  LINEAR    3.14271E+01   119.94    0.00000E+00     0.00
   60.00    35.00      -1.80 -999.99   -1.80    0.00000     0.00  LINEAR    3.55403E+01   170.33    0.00000E+00     0.00
   65.00    35.00      -6.54 -999.99   -6.54    0.00000     0.00  LINEAR    2.05941E+01   -92.43    0.00000E+00     0.00
   70.00    35.00     -13.73 -999.99  -13.73    0.00000     0.00  LINEAR    9.00420E+00    85.50    0.00000E+00     0.00
   75.00    35.00      -7.09 -999.99   -7.09    0.00000     0.00  LINEAR    1.93346E+01   118.09    0.00000E+00     0.00
   80.00    35.00      -8.59 -999.99   -8.59    0.00000     0.00  LINEAR    1.62704E+01   -31.64    0.00000E+00     0.00
   85.00    35.00      -1.21 -999.99   -1.21    0.00000     0.00  LINEAR    3.80610E+01   -29.53    0.00000E+00     0.00
   90.00    35.00      -8.37 -999.99   -8.37    0.00000     0.00  LINEAR    1.66930E+01    -5.87    0.00000E+00     0.00
    0.00    40.00    -999.99 -999.99 -999.99    0.00000     0.00            0.00000E+00     0.00    0.00000E+00     0.00
    5.00    40.00     -16.38 -999.99  -16.38    0.00000     0.00  LINEAR    6.63783E+00    42.23    0.00000E+00     0.00
   10.00    40.00      -0.26 -999.99   -0.26    0.00000     0.00  LINEAR    4.24630E+01   178.35    0.00000E+00     0.00
   15.00    40.00      -3.33 -999.99   -3.33    0.00000     0.00  LINEAR    2.97967E+01  -116.56    0.00000E+00     0.00
   20.00    40.00      -2.17 -999.99   -2.17    0.00000     0.00  LINEAR    3.40606E+01    59.23    0.00000E+00     0.00
   25.00    40.00       7.74 -999.99    7.74    0.00000     0.00  LINEAR    1.06611E+02    92.14    0.00000E+00     0.00
   30.00    40.00       2.58 -999.99    2.58    0.00000     0.00  LINEAR    5.88556E+01   126.48    0.00000E+00     0.00
   35.00    40.00      -2.78 -999.99   -2.78    0.00000     0.00  LINEAR    3.17437E+01  -131.49    0.00000E+00     0.00
   40.00    40.00     -37.64 -999.99  -37.64    0.00000     0.00  LINEAR    5.74151E-01    31.94    0.00000E+00     0.00
   45.00    40.00      -0.93 -999.99   -0.93    0.00000     0.00  LINEAR    3.92847E+01   176.88    0.00000E+00     0.00
   50.00    40.00      -8.03 -999.99   -8.03    0.00000     0.00  LINEAR    1.73543E+01  -135.85    0.00000E+00     0.00
   55.00    40.00      -9.39 -999.99   -9.39    0.00000     0.00  LINEAR    1.48319E+01   127.55    0.00000E+00     0.00
   60.00    40.00       0.10 -999.99    0.10    0.00000     0.00  LINEAR    4.42294E+01  -174.11    0.00000E+00     0.00
   65.00    40.00      -2.79 -999.99   -2.79    0.00000     0.00  LINEAR    3.17158E+01  -128.52    0.00000E+00     0.00
   70.00    40.00      -7.79 -999.99   -7.79    0.00000     0.00  LINEAR    1.78311E+01    39.04    0.00000E+00     0.00
   75.00    40.00      -4.35 -999.99   -4.35    0.00000     0.00  LINEAR    2.64995E+01    65.61    0.00000E+00     0.00
   80.00    40.00      -8.60 -999.99   -8.60    0.00000     0.00  LINEAR    1.62419E+01   -86.89    0.00000E+00     0.00
   85.00    40.00      -0.99 -999.99   -0.99    0.00000     0.00  LINEAR    3.90229E+01   -84.18    0.00000E+00     0.00
   90.00    40.00      -9.14 -999.99   -9.14    0.00000     0.00  LINEAR    1.52710E+01   -51.93    0.00000E+00     0.00
    0.00    45.00    -999.99 -999.99 -999.99    0.00000     0.00            0.00000E+00     0.00    0.00000E+00     0.00
    5.00    45.00     -14.08 -999.99  -14.08    0.00000     0.00  LINEAR    8.64356E+00    11.19    0.00000E+00     0.00
   10.00    45.00      -2.40 -999.99   -2.40    0.00000     0.00  LINEAR    3.31934E+01  -178.86    0.00000E+00     0.00
   15.00    45.00       0.03 -999.99    0.03    0.00000     0.00  LINEAR    4.38690E+01  -125.06    0.00000E+00     0.00
   20.00    45.00      -2.36 -999.99   -2.36    0.00000     0.00  LINEAR    3.33199E+01  -129.94    0.00000E+00     0.00
   25.00    45.00       2.21 -999.99    2.21    0.00000     0.00  LINEAR    5.64404E+01   125.30    0.00000E+00     0.00
   30.00    45.00       5.21 -999.99    5.21    0.00000     0.00  LINEAR    7.96954E+01   126.48    0.00000E+00     0.00
   35.00    45.00       1.30 -999.99    1.30    0.00000     0.00  LINEAR    5.07949E+01   159.02    0.00000E+00     0.00
   40.00    45.00     -31.07 -999.99  -31.07    0.00000     0.00  LINEAR    1.22333E+00   -88.58    0.00000E+00     0.00
   45.00    45.00      -9.28 -999.99   -9.28    0.00000     0.00  LINEAR    1.50273E+01   172.67    0.00000E+00     0.00
   50.00    45.00      -8.39 -999.99   -8.39    0.00000     0.00  LINEAR    1.66540E+01  -152.79    0.00000E+00     0.00
   55.00    45.00     -12.60 -999.99  -12.60    0.00000     0.00  LINEAR    1.02563E+01    50.44    0.00000E+00     0.00
   60.00    45.00      -4.29 -999.99   -4.29    0.00000     0.00  LINEAR    2.66774E+01    74.45    0.00000E+00     0.00
   65.00    45.00     -11.04 -999.99  -11.04    0.00000     0.00  LINEAR    1.22668E+01    65.21    0.00000E+00     0.00
   70.00    45.00     -19.78 -999.99  -19.78    0.00000     0.00  LINEAR    4.48491E+00   140.50    0.00000E+00     0.00
   75.00    45.00     -14.15 -999.99  -14.15    0.00000     0.00  LINEAR    8.58094E+00   131.45    0.00000E+00     0.00
   80.00    45.00     -11.04 -999.99  -11.04    0.00000     0.00  LINEAR    1.22764E+01   -47.05    0.00000E+00     0.00
   85.00    45.00      -2.90 -999.99   -2.90    0.00000     0.00  LINEAR    3.13274E+01   -48.86    0.00000E+00     0.00
   90.00    45.00      -9.92 -999.99   -9.92    0.00000     0.00  LINEAR    1.39605E+01   -26.79    0.00000E+00     0.00
    0.00    50.00    -999.99 -999.99 -999.99    0.00000     0.00            0.00000E+00     0.00    0.00000E+00     0.00
    5.00    50.00     -11.13 -999.99  -11.13    0.00000     0.00  LINEAR    1.21493E+01    -5.87    0.00000E+00     0.00
   10.00    50.00      -5.85 -999.99   -5.85    0.00000     0.00  LINEAR    2.22984E+01  -169.92    0.00000E+00     0.00
   15.00    50.00       1.94 -999.99    1.94    0.00000     0.00  LINEAR    5.46854E+01  -122.38    0.00000E+00     0.00
   20.00    50.00       7.57 -999.99    7.57    0.00000     0.00  LINEAR    1.04517E+02  -119.56    0.00000E+00     0.00
   25.00    50.00       5.84 -999.99    5.84    0.00000     0.00  LINEAR    8.56349E+01  -129.59    0.00000E+00     0.00
   30.00    50.00      -3.13 -999.99   -3.13    0.00000     0.00  LINEAR    3.05204E+01   166.47    0.00000E+00     0.00
   35.00    50.00       1.48 -999.99    1.48    0.00000     0.00  LINEAR    5.18411E+01   140.26    0.00000E+00     0.00
   40.00    50.00     -35.45 -999.99  -35.45    0.00000     0.00  LINEAR    7.38528E-01    76.24    0.00000E+00     0.00
   45.00    50.00      -6.61 -999.99   -6.61    0.00000     0.00  LINEAR    2.04237E+01   -33.77    0.00000E+00     0.00
   50.00    50.00     -17.06 -999.99  -17.06    0.00000     0.00  LINEAR    6.13289E+00   -87.45    0.00000E+00     0.00
   55.00    50.00     -11.98 -999.99  -11.98    0.00000     0.00  LINEAR    1.10134E+01    74.41    0.00000E+00     0.00
   60.00    50.00       2.90 -999.99    2.90    0.00000     0.00  LINEAR    6.10598E+01    66.33    0.00000E+00     0.00
[...]
   40.00   315.00     -27.76 -999.99  -27.76    0.00000     0.00  LINEAR    1.79080E+00   -70.87    0.00000E+00     0.00
   45.00   315.00     -14.24 -999.99  -14.24    0.00000     0.00  LINEAR    8.48472E+00   137.88    0.00000E+00     0.00
   50.00   315.00      -5.81 -999.99   -5.81    0.00000     0.00  LINEAR    2.24129E+01  -108.29    0.00000E+00     0.00
   55.00   315.00      -8.12 -999.99   -8.12    0.00000     0.00  LINEAR    1.71692E+01    64.34    0.00000E+00     0.00
   60.00   315.00      -8.23 -999.99   -8.23    0.00000     0.00  LINEAR    1.69603E+01    91.82    0.00000E+00     0.00
   65.00   315.00      -7.55 -999.99   -7.55    0.00000     0.00  LINEAR    1.83304E+01   168.95    0.00000E+00     0.00
   70.00   315.00     -10.33 -999.99  -10.33    0.00000     0.00  LINEAR    1.33180E+01   -19.11    0.00000E+00     0.00
   75.00   315.00      -5.89 -999.99   -5.89    0.00000     0.00  LINEAR    2.22074E+01   -20.05    0.00000E+00     0.00
   80.00   315.00      -7.24 -999.99   -7.24    0.00000     0.00  LINEAR    1.90154E+01   173.61    0.00000E+00     0.00
   85.00   315.00      -1.42 -999.99   -1.42    0.00000     0.00  LINEAR    3.71437E+01   173.96    0.00000E+00     0.00
   90.00   315.00      -9.63 -999.99   -9.63    0.00000     0.00  LINEAR    1.44345E+01  -161.63    0.00000E+00     0.00
    0.00   320.00    -999.99 -999.99 -999.99    0.00000     0.00            0.00000E+00     0.00    0.00000E+00     0.00
    5.00   320.00      -7.34 -999.99   -7.34    0.00000     0.00  LINEAR    1.87957E+01    89.83    0.00000E+00     0.00
   10.00   320.00      -1.45 -999.99   -1.45    0.00000     0.00  LINEAR    3.70006E+01  -128.40    0.00000E+00     0.00
   15.00   320.00       4.23 -999.99    4.23    0.00000     0.00  LINEAR    7.12144E+01  -115.46    0.00000E+00     0.00
   20.00   320.00       3.06 -999.99    3.06    0.00000     0.00  LINEAR    6.21940E+01    22.00    0.00000E+00     0.00
   25.00   320.00       4.21 -999.99    4.21    0.00000     0.00  LINEAR    7.09803E+01    35.31    0.00000E+00     0.00
   30.00   320.00       7.73 -999.99    7.73    0.00000     0.00  LINEAR    1.06532E+02   138.99    0.00000E+00     0.00
   35.00   320.00      -1.77 -999.99   -1.77    0.00000     0.00  LINEAR    3.56615E+01  -178.15    0.00000E+00     0.00
   40.00   320.00     -34.14 -999.99  -34.14    0.00000     0.00  LINEAR    8.59174E-01    14.92    0.00000E+00     0.00
   45.00   320.00      -2.24 -999.99   -2.24    0.00000     0.00  LINEAR    3.38053E+01  -148.42    0.00000E+00     0.00
   50.00   320.00      -0.60 -999.99   -0.60    0.00000     0.00  LINEAR    4.08236E+01  -112.41    0.00000E+00     0.00
   55.00   320.00      -4.90 -999.99   -4.90    0.00000     0.00  LINEAR    2.48934E+01    57.55    0.00000E+00     0.00
   60.00   320.00     -12.07 -999.99  -12.07    0.00000     0.00  LINEAR    1.08977E+01   -74.47    0.00000E+00     0.00
   65.00   320.00      -3.22 -999.99   -3.22    0.00000     0.00  LINEAR    3.01773E+01  -106.09    0.00000E+00     0.00
   70.00   320.00      -7.93 -999.99   -7.93    0.00000     0.00  LINEAR    1.75443E+01    35.64    0.00000E+00     0.00
   75.00   320.00      -5.55 -999.99   -5.55    0.00000     0.00  LINEAR    2.30830E+01    58.29    0.00000E+00     0.00
   80.00   320.00      -9.99 -999.99   -9.99    0.00000     0.00  LINEAR    1.38407E+01   -87.02    0.00000E+00     0.00
   85.00   320.00      -1.54 -999.99   -1.54    0.00000     0.00  LINEAR    3.66269E+01   -73.60    0.00000E+00     0.00
   90.00   320.00      -8.61 -999.99   -8.61    0.00000     0.00  LINEAR    1.62296E+01   -41.05    0.00000E+00     0.00
    0.00   325.00    -999.99 -999.99 -999.99    0.00000     0.00            0.00000E+00     0.00    0.00000E+00     0.00
    5.00   325.00      -7.19 -999.99   -7.19    0.00000     0.00  LINEAR    1.91099E+01    95.07    0.00000E+00     0.00
   10.00   325.00       1.06 -999.99    1.06    0.00000     0.00  LINEAR    4.94305E+01  -128.93    0.00000E+00     0.00
   15.00   325.00       5.08 -999.99    5.08    0.00000     0.00  LINEAR    7.85026E+01  -117.61    0.00000E+00     0.00
   20.00   325.00       4.63 -999.99    4.63    0.00000     0.00  LINEAR    7.45447E+01    51.25    0.00000E+00     0.00
   25.00   325.00       5.91 -999.99    5.91    0.00000     0.00  LINEAR    8.63369E+01    73.02    0.00000E+00     0.00
   30.00   325.00       7.92 -999.99    7.92    0.00000     0.00  LINEAR    1.08846E+02   141.03    0.00000E+00     0.00
   35.00   325.00     -12.92 -999.99  -12.92    0.00000     0.00  LINEAR    9.87998E+00  -143.63    0.00000E+00     0.00
   40.00   325.00     -23.44 -999.99  -23.44    0.00000     0.00  LINEAR    2.94479E+00    83.97    0.00000E+00     0.00
   45.00   325.00       1.69 -999.99    1.69    0.00000     0.00  LINEAR    5.31394E+01  -133.21    0.00000E+00     0.00
   50.00   325.00       0.03 -999.99    0.03    0.00000     0.00  LINEAR    4.39156E+01  -107.80    0.00000E+00     0.00
   55.00   325.00      -5.86 -999.99   -5.86    0.00000     0.00  LINEAR    2.22839E+01    54.79    0.00000E+00     0.00
   60.00   325.00      -1.78 -999.99   -1.78    0.00000     0.00  LINEAR    3.56343E+01   -59.95    0.00000E+00     0.00
   65.00   325.00      -2.02 -999.99   -2.02    0.00000     0.00  LINEAR    3.46489E+01   -74.89    0.00000E+00     0.00
   70.00   325.00     -12.02 -999.99  -12.02    0.00000     0.00  LINEAR    1.09562E+01    57.86    0.00000E+00     0.00
   75.00   325.00     -12.04 -999.99  -12.04    0.00000     0.00  LINEAR    1.09352E+01    88.63    0.00000E+00     0.00
   80.00   325.00     -19.98 -999.99  -19.98    0.00000     0.00  LINEAR    4.38645E+00   -19.75    0.00000E+00     0.00
   85.00   325.00      -9.84 -999.99   -9.84    0.00000     0.00  LINEAR    1.40820E+01   -15.17    0.00000E+00     0.00
   90.00   325.00     -15.62 -999.99  -15.62    0.00000     0.00  LINEAR    7.24190E+00     9.83    0.00000E+00     0.00
    0.00   330.00    -999.99 -999.99 -999.99    0.00000     0.00            0.00000E+00     0.00    0.00000E+00     0.00
    5.00   330.00      -7.08 -999.99   -7.08    0.00000     0.00  LINEAR    1.93601E+01   100.26    0.00000E+00     0.00
   10.00   330.00       2.90 -999.99    2.90    0.00000     0.00  LINEAR    6.10720E+01  -129.64    0.00000E+00     0.00
   15.00   330.00       5.95 -999.99    5.95    0.00000     0.00  LINEAR    8.67751E+01  -120.30    0.00000E+00     0.00
   20.00   330.00       5.99 -999.99    5.99    0.00000     0.00  LINEAR    8.71724E+01    71.97    0.00000E+00     0.00
   25.00   330.00       6.36 -999.99    6.36    0.00000     0.00  LINEAR    9.09341E+01    87.74    0.00000E+00     0.00
   30.00   330.00       5.36 -999.99    5.36    0.00000     0.00  LINEAR    8.10967E+01   142.58    0.00000E+00     0.00
   35.00   330.00      -9.20 -999.99   -9.20    0.00000     0.00  LINEAR    1.51698E+01    -8.43    0.00000E+00     0.00
   40.00   330.00     -29.81 -999.99  -29.81    0.00000     0.00  LINEAR    1.41422E+00    81.36    0.00000E+00     0.00
   45.00   330.00       0.11 -999.99    0.11    0.00000     0.00  LINEAR    4.42826E+01  -106.44    0.00000E+00     0.00
   50.00   330.00      -2.77 -999.99   -2.77    0.00000     0.00  LINEAR    3.18097E+01   -83.81    0.00000E+00     0.00
   55.00   330.00     -11.71 -999.99  -11.71    0.00000     0.00  LINEAR    1.13579E+01    53.00    0.00000E+00     0.00
   60.00   330.00       0.02 -999.99    0.02    0.00000     0.00  LINEAR    4.38382E+01   -40.53    0.00000E+00     0.00
   65.00   330.00      -6.51 -999.99   -6.51    0.00000     0.00  LINEAR    2.06616E+01   -21.02    0.00000E+00     0.00
   70.00   330.00     -12.66 -999.99  -12.66    0.00000     0.00  LINEAR    1.01779E+01   151.91    0.00000E+00     0.00
   75.00   330.00     -10.74 -999.99  -10.74    0.00000     0.00  LINEAR    1.27059E+01  -128.84    0.00000E+00     0.00
   80.00   330.00     -11.26 -999.99  -11.26    0.00000     0.00  LINEAR    1.19605E+01    87.92    0.00000E+00     0.00
   85.00   330.00      -3.43 -999.99   -3.43    0.00000     0.00  LINEAR    2.94765E+01    93.49    0.00000E+00     0.00
   90.00   330.00     -11.09 -999.99  -11.09    0.00000     0.00  LINEAR    1.21971E+01   123.45    0.00000E+00     0.00
    0.00   335.00    -999.99 -999.99 -999.99    0.00000     0.00            0.00000E+00     0.00    0.00000E+00     0.00
    5.00   335.00      -6.97 -999.99   -6.97    0.00000     0.00  LINEAR    1.95961E+01   105.26    0.00000E+00     0.00
   10.00   335.00       4.23 -999.99    4.23    0.00000     0.00  LINEAR    7.11955E+01  -130.44    0.00000E+00     0.00
   15.00   335.00       6.82 -999.99    6.82    0.00000     0.00  LINEAR    9.59139E+01  -121.46    0.00000E+00     0.00
   20.00   335.00       6.61 -999.99    6.61    0.00000     0.00  LINEAR    9.36688E+01    86.09    0.00000E+00     0.00
   25.00   335.00       4.33 -999.99    4.33    0.00000     0.00  LINEAR    7.19905E+01    94.91    0.00000E+00     0.00
   30.00   335.00       0.38 -999.99    0.38    0.00000     0.00  LINEAR    4.57150E+01   151.00    0.00000E+00     0.00
   35.00   335.00      -6.63 -999.99   -6.63    0.00000     0.00  LINEAR    2.03996E+01    17.59    0.00000E+00     0.00
   40.00   335.00     -21.93 -999.99  -21.93    0.00000     0.00  LINEAR    3.50121E+00   -74.29    0.00000E+00     0.00
   45.00   335.00      -3.07 -999.99   -3.07    0.00000     0.00  LINEAR    3.07188E+01   -52.89    0.00000E+00     0.00
   50.00   335.00      -7.38 -999.99   -7.38    0.00000     0.00  LINEAR    1.86913E+01   -32.47    0.00000E+00     0.00
   55.00   335.00     -11.96 -999.99  -11.96    0.00000     0.00  LINEAR    1.10373E+01   -27.70    0.00000E+00     0.00
   60.00   335.00       3.46 -999.99    3.46    0.00000     0.00  LINEAR    6.51222E+01   -26.07    0.00000E+00     0.00
   65.00   335.00      -3.66 -999.99   -3.66    0.00000     0.00  LINEAR    2.87013E+01    13.34    0.00000E+00     0.00
   70.00   335.00     -12.31 -999.99  -12.31    0.00000     0.00  LINEAR    1.06027E+01   172.76    0.00000E+00     0.00
   75.00   335.00      -8.82 -999.99   -8.82    0.00000     0.00  LINEAR    1.58402E+01   -83.60    0.00000E+00     0.00
   80.00   335.00      -8.40 -999.99   -8.40    0.00000     0.00  LINEAR    1.66218E+01   132.40    0.00000E+00     0.00
   85.00   335.00      -0.15 -999.99   -0.15    0.00000     0.00  LINEAR    4.29818E+01   148.09    0.00000E+00     0.00
   90.00   335.00      -8.02 -999.99   -8.02    0.00000     0.00  LINEAR    1.73732E+01   177.01    0.00000E+00     0.00
    0.00   340.00    -999.99 -999.99 -999.99    0.00000     0.00            0.00000E+00     0.00    0.00000E+00     0.00
    5.00   340.00      -6.87 -999.99   -6.87    0.00000     0.00  LINEAR    1.98296E+01   109.84    0.00000E+00     0.00
   10.00   340.00       5.15 -999.99    5.15    0.00000     0.00  LINEAR    7.91519E+01  -131.31    0.00000E+00     0.00
   15.00   340.00       7.61 -999.99    7.61    0.00000     0.00  LINEAR    1.05027E+02  -120.11    0.00000E+00     0.00
   20.00   340.00       6.43 -999.99    6.43    0.00000     0.00  LINEAR    9.17149E+01    97.45    0.00000E+00     0.00
   25.00   340.00      -0.66 -999.99   -0.66    0.00000     0.00  LINEAR    4.05289E+01   108.23    0.00000E+00     0.00
   30.00   340.00      -6.01 -999.99   -6.01    0.00000     0.00  LINEAR    2.19018E+01  -168.27    0.00000E+00     0.00
   35.00   340.00      -4.49 -999.99   -4.49    0.00000     0.00  LINEAR    2.60796E+01    51.27    0.00000E+00     0.00
   40.00   340.00     -16.37 -999.99  -16.37    0.00000     0.00  LINEAR    6.64241E+00   -75.89    0.00000E+00     0.00
   45.00   340.00      -4.23 -999.99   -4.23    0.00000     0.00  LINEAR    2.68835E+01     8.47    0.00000E+00     0.00
   50.00   340.00      -7.55 -999.99   -7.55    0.00000     0.00  LINEAR    1.83386E+01    41.77    0.00000E+00     0.00
   55.00   340.00      -6.05 -999.99   -6.05    0.00000     0.00  LINEAR    2.18054E+01   -54.08    0.00000E+00     0.00
   60.00   340.00       3.94 -999.99    3.94    0.00000     0.00  LINEAR    6.88388E+01   -30.81    0.00000E+00     0.00
   65.00   340.00      -6.05 -999.99   -6.05    0.00000     0.00  LINEAR    2.18001E+01    -7.20    0.00000E+00     0.00
   70.00   340.00     -28.47 -999.99  -28.47    0.00000     0.00  LINEAR    1.65006E+00   -54.46    0.00000E+00     0.00
   75.00   340.00      -7.17 -999.99   -7.17    0.00000     0.00  LINEAR    1.91554E+01   -27.02    0.00000E+00     0.00
   80.00   340.00      -6.12 -999.99   -6.12    0.00000     0.00  LINEAR    2.16251E+01   170.30    0.00000E+00     0.00
   85.00   340.00       2.27 -999.99    2.27    0.00000     0.00  LINEAR    5.68318E+01  -179.45    0.00000E+00     0.00
   90.00   340.00      -5.76 -999.99   -5.76    0.00000     0.00  LINEAR    2.25228E+01  -151.33    0.00000E+00     0.00
    0.00   345.00    -999.99 -999.99 -999.99    0.00000     0.00            0.00000E+00     0.00    0.00000E+00     0.00
    5.00   345.00      -6.78 -999.99   -6.78    0.00000     0.00  LINEAR    2.00332E+01   113.82    0.00000E+00     0.00
   10.00   345.00       5.71 -999.99    5.71    0.00000     0.00  LINEAR    8.44400E+01  -132.35    0.00000E+00     0.00
   15.00   345.00       8.26 -999.99    8.26    0.00000     0.00  LINEAR    1.13246E+02  -116.23    0.00000E+00     0.00
   20.00   345.00       5.72 -999.99    5.72    0.00000     0.00  LINEAR    8.44902E+01   109.11    0.00000E+00     0.00
   25.00   345.00      -5.16 -999.99   -5.16    0.00000     0.00  LINEAR    2.41478E+01   164.96    0.00000E+00     0.00
   30.00   345.00      -4.48 -999.99   -4.48    0.00000     0.00  LINEAR    2.61269E+01   -97.60    0.00000E+00     0.00
   35.00   345.00       0.60 -999.99    0.60    0.00000     0.00  LINEAR    4.68522E+01    61.56    0.00000E+00     0.00
   40.00   345.00     -17.68 -999.99  -17.68    0.00000     0.00  LINEAR    5.71633E+00   -76.83    0.00000E+00     0.00
   45.00   345.00      -4.68 -999.99   -4.68    0.00000     0.00  LINEAR    2.55211E+01    61.86    0.00000E+00     0.00
   50.00   345.00      -5.30 -999.99   -5.30    0.00000     0.00  LINEAR    2.37700E+01    75.49    0.00000E+00     0.00
   55.00   345.00      -7.07 -999.99   -7.07    0.00000     0.00  LINEAR    1.93769E+01   -67.28    0.00000E+00     0.00
   60.00   345.00      -0.35 -999.99   -0.35    0.00000     0.00  LINEAR    4.20286E+01   -34.07    0.00000E+00     0.00
   65.00   345.00     -10.06 -999.99  -10.06    0.00000     0.00  LINEAR    1.37415E+01   -35.75    0.00000E+00     0.00
   70.00   345.00     -17.48 -999.99  -17.48    0.00000     0.00  LINEAR    5.84942E+00    48.22    0.00000E+00     0.00
   75.00   345.00     -10.24 -999.99  -10.24    0.00000     0.00  LINEAR    1.34494E+01    21.10    0.00000E+00     0.00
   80.00   345.00     -10.20 -999.99  -10.20    0.00000     0.00  LINEAR    1.35130E+01  -154.70    0.00000E+00     0.00
   85.00   345.00      -2.59 -999.99   -2.59    0.00000     0.00  LINEAR    3.24567E+01  -151.98    0.00000E+00     0.00
   90.00   345.00     -10.92 -999.99  -10.92    0.00000     0.00  LINEAR    1.24344E+01  -135.42    0.00000E+00     0.00
    0.00   350.00    -999.99 -999.99 -999.99    0.00000     0.00            0.00000E+00     0.00    0.00000E+00     0.00
    5.00   350.00      -6.73 -999.99   -6.73    0.00000     0.00  LINEAR    2.01469E+01   117.06    0.00000E+00     0.00
   10.00   350.00       5.95 -999.99    5.95    0.00000     0.00  LINEAR    8.67790E+01  -133.70    0.00000E+00     0.00
   15.00   350.00       8.77 -999.99    8.77    0.00000     0.00  LINEAR    1.20010E+02  -110.35    0.00000E+00     0.00
   20.00   350.00       4.90 -999.99    4.90    0.00000     0.00  LINEAR    7.69238E+01   121.95    0.00000E+00     0.00
   25.00   350.00      -0.34 -999.99   -0.34    0.00000     0.00  LINEAR    4.20555E+01  -162.30    0.00000E+00     0.00
   30.00   350.00       0.51 -999.99    0.51    0.00000     0.00  LINEAR    4.64095E+01   -63.76    0.00000E+00     0.00
   35.00   350.00       4.58 -999.99    4.58    0.00000     0.00  LINEAR    7.41137E+01    58.08    0.00000E+00     0.00
   40.00   350.00     -26.02 -999.99  -26.02    0.00000     0.00  LINEAR    2.18708E+00   -87.89    0.00000E+00     0.00
   45.00   350.00      -6.43 -999.99   -6.43    0.00000     0.00  LINEAR    2.08668E+01   107.24    0.00000E+00     0.00
   50.00   350.00      -6.14 -999.99   -6.14    0.00000     0.00  LINEAR    2.15702E+01    93.63    0.00000E+00     0.00
   55.00   350.00     -16.06 -999.99  -16.06    0.00000     0.00  LINEAR    6.88290E+00   -57.81    0.00000E+00     0.00
   60.00   350.00      -8.43 -999.99   -8.43    0.00000     0.00  LINEAR    1.65695E+01    41.72    0.00000E+00     0.00
   65.00   350.00     -29.52 -999.99  -29.52    0.00000     0.00  LINEAR    1.46092E+00   -32.97    0.00000E+00     0.00
   70.00   350.00     -12.50 -999.99  -12.50    0.00000     0.00  LINEAR    1.03695E+01    71.91    0.00000E+00     0.00
   75.00   350.00      -6.04 -999.99   -6.04    0.00000     0.00  LINEAR    2.18181E+01    63.52    0.00000E+00     0.00
   80.00   350.00      -7.26 -999.99   -7.26    0.00000     0.00  LINEAR    1.89588E+01  -103.30    0.00000E+00     0.00
   85.00   350.00       0.20 -999.99    0.20    0.00000     0.00  LINEAR    4.47408E+01  -106.34    0.00000E+00     0.00
   90.00   350.00      -9.21 -999.99   -9.21    0.00000     0.00  LINEAR    1.51428E+01   -87.18    0.00000E+00     0.00
    0.00   355.00    -999.99 -999.99 -999.99    0.00000     0.00            0.00000E+00     0.00    0.00000E+00     0.00
    5.00   355.00      -6.76 -999.99   -6.76    0.00000     0.00  LINEAR    2.00906E+01   119.47    0.00000E+00     0.00
   10.00   355.00       5.89 -999.99    5.89    0.00000     0.00  LINEAR    8.61748E+01  -135.62    0.00000E+00     0.00
   15.00   355.00       9.11 -999.99    9.11    0.00000     0.00  LINEAR    1.24781E+02  -103.12    0.00000E+00     0.00
   20.00   355.00       4.17 -999.99    4.17    0.00000     0.00  LINEAR    7.07210E+01   133.87    0.00000E+00     0.00
   25.00   355.00       3.11 -999.99    3.11    0.00000     0.00  LINEAR    6.25662E+01  -168.67    0.00000E+00     0.00
   30.00   355.00       4.06 -999.99    4.06    0.00000     0.00  LINEAR    6.98208E+01   -48.20    0.00000E+00     0.00
   35.00   355.00       6.45 -999.99    6.45    0.00000     0.00  LINEAR    9.19551E+01    52.81    0.00000E+00     0.00
   40.00   355.00     -27.32 -999.99  -27.32    0.00000     0.00  LINEAR    1.88212E+00   126.07    0.00000E+00     0.00
   45.00   355.00     -10.03 -999.99  -10.03    0.00000     0.00  LINEAR    1.37881E+01   168.95    0.00000E+00     0.00
   50.00   355.00      -7.26 -999.99   -7.26    0.00000     0.00  LINEAR    1.89670E+01   119.29    0.00000E+00     0.00
   55.00   355.00     -12.36 -999.99  -12.36    0.00000     0.00  LINEAR    1.05410E+01    24.61    0.00000E+00     0.00
   60.00   355.00      -0.56 -999.99   -0.56    0.00000     0.00  LINEAR    4.10185E+01    92.98    0.00000E+00     0.00
   65.00   355.00      -6.68 -999.99   -6.68    0.00000     0.00  LINEAR    2.02801E+01   156.10    0.00000E+00     0.00
   70.00   355.00     -12.16 -999.99  -12.16    0.00000     0.00  LINEAR    1.07851E+01    16.66    0.00000E+00     0.00
   75.00   355.00      -1.95 -999.99   -1.95    0.00000     0.00  LINEAR    3.49501E+01    47.67    0.00000E+00     0.00
   80.00   355.00      -2.30 -999.99   -2.30    0.00000     0.00  LINEAR    3.35446E+01  -105.93    0.00000E+00     0.00
   85.00   355.00       6.14 -999.99    6.14    0.00000     0.00  LINEAR    8.86810E+01  -106.79    0.00000E+00     0.00
   90.00   355.00      -1.67 -999.99   -1.67    0.00000     0.00  LINEAR    3.60961E+01   -80.79    0.00000E+00     0.00






 ***** DATA CARD NO. 16   EN   0     0     0     0  0.00000E+00  0.00000E+00  0.00000E+00  0.00000E+00  0.00000E+00  0.00000E+00

 RUN TIME =     0.156
