1



                                 *********************************************

                                    NUMERICAL ELECTROMAGNETICS CODE (NEC-2D)

                                 *********************************************




                                     - - - - COMMENTS - - - -


                                                                                                     
                                                                                                     




                                 - - - STRUCTURE SPECIFICATION - - -

                                     COORDINATES MUST BE INPUT IN
                                     METERS OR BE SCALED TO METERS
                                     BEFORE STRUCTURE INPUT IS ENDED


  WIRE                                                                               NO. OF    FIRST  LAST     TAG
  NO.        X1         Y1         Z1          X2         Y2         Z2      RADIUS   SEG.     SEG.   SEG.     NO.
     1   -7.50000   -5.00000   -5.00000    -7.50000   -5.00000    5.00000    0.00100     20        1    20     101
     2   -2.50000   -5.00000   -5.00000    -2.50000   -5.00000    5.00000    0.00100     20       21    40     102
     3    2.50000   -5.00000   -5.00000     2.50000   -5.00000    5.00000    0.00100     20       41    60     103
     4    7.50000   -5.00000   -5.00000     7.50000   -5.00000    5.00000    0.00100     20       61    80     104
     5   -7.50000    0.00000   -5.00000    -7.50000    0.00000    5.00000    0.00100     20       81   100     201
     6   -2.50000    0.00000   -5.00000    -2.50000    0.00000    5.00000    0.00100     20      101   120     202
     7    2.50000    0.00000   -5.00000     2.50000    0.00000    5.00000    0.00100     20      121   140     203
     8    7.50000    0.00000   -5.00000     7.50000    0.00000    5.00000    0.00100     20      141   160     204
     9   -7.50000    5.00000   -5.00000    -7.50000    5.00000    5.00000    0.00100     20      161   180     301
    10   -2.50000    5.00000   -5.00000    -2.50000    5.00000    5.00000    0.00100     20      181   200     302
    11    2.50000    5.00000   -5.00000     2.50000    5.00000    5.00000    0.00100     20      201   220     303
    12    7.50000    5.00000   -5.00000     7.50000    5.00000    5.00000    0.00100     20      221   240     304

   TOTAL SEGMENTS USED=  240     NO. SEG. IN A SYMMETRIC CELL=  240     SYMMETRY FLAG=  0


         - MULTIPLE WIRE JUNCTIONS -
 JUNCTION    SEGMENTS  (- FOR END 1, + FOR END 2)
  NONE




                                 - - - - SEGMENTATION DATA - - - -

                                        COORDINATES IN METERS

                         I+ AND I- INDICATE THE SEGMENTS BEFORE AND AFTER I


  SEG.   COORDINATES OF SEG. CENTER     SEG.     ORIENTATION ANGLES    WIRE    CONNECTION DATA   TAG
  NO.       X         Y         Z       LENGTH     ALPHA     BETA      RADIUS    I-   I    I+    NO.
     1  -7.50000  -5.00000  -4.75000   0.50000   90.00000   0.00000   0.00100     0    1    2    101
     2  -7.50000  -5.00000  -4.25000   0.50000   90.00000   0.00000   0.00100     1    2    3    101
     3  -7.50000  -5.00000  -3.75000   0.50000   90.00000   0.00000   0.00100     2    3    4    101
     4  -7.50000  -5.00000  -3.25000   0.50000   90.00000   0.00000   0.00100     3    4    5    101
     5  -7.50000  -5.00000  -2.75000   0.50000   90.00000   0.00000   0.00100     4    5    6    101
     6  -7.50000  -5.00000  -2.25000   0.50000   90.00000   0.00000   0.00100     5    6    7    101
     7  -7.50000  -5.00000  -1.75000   0.50000   90.00000   0.00000   0.00100     6    7    8    101
     8  -7.50000  -5.00000  -1.25000   0.50000   90.00000   0.00000   0.00100     7    8    9    101
     9  -7.50000  -5.00000  -0.75000   0.50000   90.00000   0.00000   0.00100     8    9   10    101
    10  -7.50000  -5.00000  -0.25000   0.50000   90.00000   0.00000   0.00100     9   10   11    101
    11  -7.50000  -5.00000   0.25000   0.50000   90.00000   0.00000   0.00100    10   11   12    101
    12  -7.50000  -5.00000   0.75000   0.50000   90.00000   0.00000   0.00100    11   12   13    101
    13  -7.50000  -5.00000   1.25000   0.50000   90.00000   0.00000   0.00100    12   13   14    101
    14  -7.50000  -5.00000   1.75000   0.50000   90.00000   0.00000   0.00100    13   14   15    101
    15  -7.50000  -5.00000   2.25000   0.50000   90.00000   0.00000   0.00100    14   15   16    101
    16  -7.50000  -5.00000   2.75000   0.50000   90.00000   0.00000   0.00100    15   16   17    101
    17  -7.50000  -5.00000   3.25000   0.50000   90.00000   0.00000   0.00100    16   17   18    101
    18  -7.50000  -5.00000   3.75000   0.50000   90.00000   0.00000   0.00100    17   18   19    101
    19  -7.50000  -5.00000   4.25000   0.50000   90.00000   0.00000   0.00100    18   19   20    101
    20  -7.50000  -5.00000   4.75000   0.50000   90.00000   0.00000   0.00100    19   20    0    101
    21  -2.50000  -5.00000  -4.75000   0.50000   90.00000   0.00000   0.00100     0   21   22    102
    22  -2.50000  -5.00000  -4.25000   0.50000   90.00000   0.00000   0.00100    21   22   23    102
    23  -2.50000  -5.00000  -3.75000   0.50000   90.00000   0.00000   0.00100    22   23   24    102
    24  -2.50000  -5.00000  -3.25000   0.50000   90.00000   0.00000   0.00100    23   24   25    102
    25  -2.50000  -5.00000  -2.75000   0.50000   90.00000   0.00000   0.00100    24   25   26    102
    26  -2.50000  -5.00000  -2.25000   0.50000   90.00000   0.00000   0.00100    25   26   27    102
    27  -2.50000  -5.00000  -1.75000   0.50000   90.00000   0.00000   0.00100    26   27   28    102
    28  -2.50000  -5.00000  -1.25000   0.50000   90.00000   0.00000   0.00100    27   28   29    102
    29  -2.50000  -5.00000  -0.75000   0.50000   90.00000   0.00000   0.00100    28   29   30    102
    30  -2.50000  -5.00000  -0.25000   0.50000   90.00000   0.00000   0.00100    29   30   31    102
    31  -2.50000  -5.00000   0.25000   0.50000   90.00000   0.00000   0.00100    30   31   32    102
    32  -2.50000  -5.00000   0.75000   0.50000   90.00000   0.00000   0.00100    31   32   33    102
    33  -2.50000  -5.00000   1.25000   0.50000   90.00000   0.00000   0.00100    32   33   34    102
    34  -2.50000  -5.00000   1.75000   0.50000   90.00000   0.00000   0.00100    33   34   35    102
    35  -2.50000  -5.00000   2.25000   0.50000   90.00000   0.00000   0.00100    34   35   36    102
    36  -2.50000  -5.00000   2.75000   0.50000   90.00000   0.00000   0.00100    35   36   37    102
    37  -2.50000  -5.00000   3.25000   0.50000   90.00000   0.00000   0.00100    36   37   38    102
    38  -2.50000  -5.00000   3.75000   0.50000   90.00000   0.00000   0.00100    37   38   39    102
    39  -2.50000  -5.00000   4.25000   0.50000   90.00000   0.00000   0.00100    38   39   40    102
    40  -2.50000  -5.00000   4.75000   0.50000   90.00000   0.00000   0.00100    39   40    0    102
    41   2.50000  -5.00000  -4.75000   0.50000   90.00000   0.00000   0.00100     0   41   42    103
    42   2.50000  -5.00000  -4.25000   0.50000   90.00000   0.00000   0.00100    41   42   43    103
    43   2.50000  -5.00000  -3.75000   0.50000   90.00000   0.00000   0.00100    42   43   44    103
    44   2.50000  -5.00000  -3.25000   0.50000   90.00000   0.00000   0.00100    43   44   45    103
    45   2.50000  -5.00000  -2.75000   0.50000   90.00000   0.00000   0.00100    44   45   46    103
    46   2.50000  -5.00000  -2.25000   0.50000   90.00000   0.00000   0.00100    45   46   47    103
    47   2.50000  -5.00000  -1.75000   0.50000   90.00000   0.00000   0.00100    46   47   48    103
    48   2.50000  -5.00000  -1.25000   0.50000   90.00000   0.00000   0.00100    47   48   49    103
    49   2.50000  -5.00000  -0.75000   0.50000   90.00000   0.00000   0.00100    48   49   50    103
    50   2.50000  -5.00000  -0.25000   0.50000   90.00000   0.00000   0.00100    49   50   51    103
    51   2.50000  -5.00000   0.25000   0.50000   90.00000   0.00000   0.00100    50   51   52    103
    52   2.50000  -5.00000   0.75000   0.50000   90.00000   0.00000   0.00100    51   52   53    103
    53   2.50000  -5.00000   1.25000   0.50000   90.00000   0.00000   0.00100    52   53   54    103
    54   2.50000  -5.00000   1.75000   0.50000   90.00000   0.00000   0.00100    53   54   55    103
    55   2.50000  -5.00000   2.25000   0.50000   90.00000   0.00000   0.00100    54   55   56    103
    56   2.50000  -5.00000   2.75000   0.50000   90.00000   0.00000   0.00100    55   56   57    103
    57   2.50000  -5.00000   3.25000   0.50000   90.00000   0.00000   0.00100    56   57   58    103
    58   2.50000  -5.00000   3.75000   0.50000   90.00000   0.00000   0.00100    57   58   59    103
    59   2.50000  -5.00000   4.25000   0.50000   90.00000   0.00000   0.00100    58   59   60    103
    60   2.50000  -5.00000   4.75000   0.50000   90.00000   0.00000   0.00100    59   60    0    103
    61   7.50000  -5.00000  -4.75000   0.50000   90.00000   0.00000   0.00100     0   61   62    104
    62   7.50000  -5.00000  -4.25000   0.50000   90.00000   0.00000   0.00100    61   62   63    104
    63   7.50000  -5.00000  -3.75000   0.50000   90.00000   0.00000   0.00100    62   63   64    104
    64   7.50000  -5.00000  -3.25000   0.50000   90.00000   0.00000   0.00100    63   64   65    104
    65   7.50000  -5.00000  -2.75000   0.50000   90.00000   0.00000   0.00100    64   65   66    104
    66   7.50000  -5.00000  -2.25000   0.50000   90.00000   0.00000   0.00100    65   66   67    104
    67   7.50000  -5.00000  -1.75000   0.50000   90.00000   0.00000   0.00100    66   67   68    104
    68   7.50000  -5.00000  -1.25000   0.50000   90.00000   0.00000   0.00100    67   68   69    104
    69   7.50000  -5.00000  -0.75000   0.50000   90.00000   0.00000   0.00100    68   69   70    104
    70   7.50000  -5.00000  -0.25000   0.50000   90.00000   0.00000   0.00100    69   70   71    104
    71   7.50000  -5.00000   0.25000   0.50000   90.00000   0.00000   0.00100    70   71   72    104
    72   7.50000  -5.00000   0.75000   0.50000   90.00000   0.00000   0.00100    71   72   73    104
    73   7.50000  -5.00000   1.25000   0.50000   90.00000   0.00000   0.00100    72   73   74    104
    74   7.50000  -5.00000   1.75000   0.50000   90.00000   0.00000   0.00100    73   74   75    104
    75   7.50000  -5.00000   2.25000   0.50000   90.00000   0.00000   0.00100    74   75   76    104
    76   7.50000  -5.00000   2.75000   0.50000   90.00000   0.00000   0.00100    75   76   77    104
    77   7.50000  -5.00000   3.25000   0.50000   90.00000   0.00000   0.00100    76   77   78    104
    78   7.50000  -5.00000   3.75000   0.50000   90.00000   0.00000   0.00100    77   78   79    104
    79   7.50000  -5.00000   4.25000   0.50000   90.00000   0.00000   0.00100    78   79   80    104
    80   7.50000  -5.00000   4.75000   0.50000   90.00000   0.00000   0.00100    79   80    0    104
    81  -7.50000   0.00000  -4.75000   0.50000   90.00000   0.00000   0.00100     0   81   82    201
    82  -7.50000   0.00000  -4.25000   0.50000   90.00000   0.00000   0.00100    81   82   83    201
    83  -7.50000   0.00000  -3.75000   0.50000   90.00000   0.00000   0.00100    82   83   84    201
    84  -7.50000   0.00000  -3.25000   0.50000   90.00000   0.00000   0.00100    83   84   85    201
    85  -7.50000   0.00000  -2.75000   0.50000   90.00000   0.00000   0.00100    84   85   86    201
    86  -7.50000   0.00000  -2.25000   0.50000   90.00000   0.00000   0.00100    85   86   87    201
    87  -7.50000   0.00000  -1.75000   0.50000   90.00000   0.00000   0.00100    86   87   88    201
    88  -7.50000   0.00000  -1.25000   0.50000   90.00000   0.00000   0.00100    87   88   89    201
    89  -7.50000   0.00000  -0.75000   0.50000   90.00000   0.00000   0.00100    88   89   90    201
    90  -7.50000   0.00000  -0.25000   0.50000   90.00000   0.00000   0.00100    89   90   91    201
    91  -7.50000   0.00000   0.25000   0.50000   90.00000   0.00000   0.00100    90   91   92    201
    92  -7.50000   0.00000   0.75000   0.50000   90.00000   0.00000   0.00100    91   92   93    201
    93  -7.50000   0.00000   1.25000   0.50000   90.00000   0.00000   0.00100    92   93   94    201
    94  -7.50000   0.00000   1.75000   0.50000   90.00000   0.00000   0.00100    93   94   95    201
    95  -7.50000   0.00000   2.25000   0.50000   90.00000   0.00000   0.00100    94   95   96    201
    96  -7.50000   0.00000   2.75000   0.50000   90.00000   0.00000   0.00100    95   96   97    201
    97  -7.50000   0.00000   3.25000   0.50000   90.00000   0.00000   0.00100    96   97   98    201
    98  -7.50000   0.00000   3.75000   0.50000   90.00000   0.00000   0.00100    97   98   99    201
    99  -7.50000   0.00000   4.25000   0.50000   90.00000   0.00000   0.00100    98   99  100    201
   100  -7.50000   0.00000   4.75000   0.50000   90.00000   0.00000   0.00100    99  100    0    201
   101  -2.50000   0.00000  -4.75000   0.50000   90.00000   0.00000   0.00100     0  101  102    202
   102  -2.50000   0.00000  -4.25000   0.50000   90.00000   0.00000   0.00100   101  102  103    202
   103  -2.50000   0.00000  -3.75000   0.50000   90.00000   0.00000   0.00100   102  103  104    202
   104  -2.50000   0.00000  -3.25000   0.50000   90.00000   0.00000   0.00100   103  104  105    202
   105  -2.50000   0.00000  -2.75000   0.50000   90.00000   0.00000   0.00100   104  105  106    202
   106  -2.50000   0.00000  -2.25000   0.50000   90.00000   0.00000   0.00100   105  106  107    202
   107  -2.50000   0.00000  -1.75000   0.50000   90.00000   0.00000   0.00100   106  107  108    202
   108  -2.50000   0.00000  -1.25000   0.50000   90.00000   0.00000   0.00100   107  108  109    202
   109  -2.50000   0.00000  -0.75000   0.50000   90.00000   0.00000   0.00100   108  109  110    202
   110  -2.50000   0.00000  -0.25000   0.50000   90.00000   0.00000   0.00100   109  110  111    202
   111  -2.50000   0.00000   0.25000   0.50000   90.00000   0.00000   0.00100   110  111  112    202
   112  -2.50000   0.00000   0.75000   0.50000   90.00000   0.00000   0.00100   111  112  113    202
   113  -2.50000   0.00000   1.25000   0.50000   90.00000   0.00000   0.00100   112  113  114    202
   114  -2.50000   0.00000   1.75000   0.50000   90.00000   0.00000   0.00100   113  114  115    202
   115  -2.50000   0.00000   2.25000   0.50000   90.00000   0.00000   0.00100   114  115  116    202
   116  -2.50000   0.00000   2.75000   0.50000   90.00000   0.00000   0.00100   115  116  117    202
   117  -2.50000   0.00000   3.25000   0.50000   90.00000   0.00000   0.00100   116  117  118    202
   118  -2.50000   0.00000   3.75000   0.50000   90.00000   0.00000   0.00100   117  118  119    202
   119  -2.50000   0.00000   4.25000   0.50000   90.00000   0.00000   0.00100   118  119  120    202
   120  -2.50000   0.00000   4.75000   0.50000   90.00000   0.00000   0.00100   119  120    0    202
   121   2.50000   0.00000  -4.75000   0.50000   90.00000   0.00000   0.00100     0  121  122    203
   122   2.50000   0.00000  -4.25000   0.50000   90.00000   0.00000   0.00100   121  122  123    203
   123   2.50000   0.00000  -3.75000   0.50000   90.00000   0.00000   0.00100   122  123  124    203
   124   2.50000   0.00000  -3.25000   0.50000   90.00000   0.00000   0.00100   123  124  125    203
   125   2.50000   0.00000  -2.75000   0.50000   90.00000   0.00000   0.00100   124  125  126    203
   126   2.50000   0.00000  -2.25000   0.50000   90.00000   0.00000   0.00100   125  126  127    203
   127   2.50000   0.00000  -1.75000   0.50000   90.00000   0.00000   0.00100   126  127  128    203
   128   2.50000   0.00000  -1.25000   0.50000   90.00000   0.00000   0.00100   127  128  129    203
   129   2.50000   0.00000  -0.75000   0.50000   90.00000   0.00000   0.00100   128  129  130    203
   130   2.50000   0.00000  -0.25000   0.50000   90.00000   0.00000   0.00100   129  130  131    203
   131   2.50000   0.00000   0.25000   0.50000   90.00000   0.00000   0.00100   130  131  132    203
   132   2.50000   0.00000   0.75000   0.50000   90.00000   0.00000   0.00100   131  132  133    203
   133   2.50000   0.00000   1.25000   0.50000   90.00000   0.00000   0.00100   132  133  134    203
   134   2.50000   0.00000   1.75000   0.50000   90.00000   0.00000   0.00100   133  134  135    203
   135   2.50000   0.00000   2.25000   0.50000   90.00000   0.00000   0.00100   134  135  136    203
   136   2.50000   0.00000   2.75000   0.50000   90.00000   0.00000   0.00100   135  136  137    203
   137   2.50000   0.00000   3.25000   0.50000   90.00000   0.00000   0.00100   136  137  138    203
   138   2.50000   0.00000   3.75000   0.50000   90.00000   0.00000   0.00100   137  138  139    203
   139   2.50000   0.00000   4.25000   0.50000   90.00000   0.00000   0.00100   138  139  140    203
   140   2.50000   0.00000   4.75000   0.50000   90.00000   0.00000   0.00100   139  140    0    203
   141   7.50000   0.00000  -4.75000   0.50000   90.00000   0.00000   0.00100     0  141  142    204
   142   7.50000   0.00000  -4.25000   0.50000   90.00000   0.00000   0.00100   141  142  143    204
   143   7.50000   0.00000  -3.75000   0.50000   90.00000   0.00000   0.00100   142  143  144    204
   144   7.50000   0.00000  -3.25000   0.50000   90.00000   0.00000   0.00100   143  144  145    204
   145   7.50000   0.00000  -2.75000   0.50000   90.00000   0.00000   0.00100   144  145  146    204
   146   7.50000   0.00000  -2.25000   0.50000   90.00000   0.00000   0.00100   145  146  147    204
   147   7.50000   0.00000  -1.75000   0.50000   90.00000   0.00000   0.00100   146  147  148    204
   148   7.50000   0.00000  -1.25000   0.50000   90.00000   0.00000   0.00100   147  148  149    204
   149   7.50000   0.00000  -0.75000   0.50000   90.00000   0.00000   0.00100   148  149  150    204
   150   7.50000   0.00000  -0.25000   0.50000   90.00000   0.00000   0.00100   149  150  151    204
   151   7.50000   0.00000   0.25000   0.50000   90.00000   0.00000   0.00100   150  151  152    204
   152   7.50000   0.00000   0.75000   0.50000   90.00000   0.00000   0.00100   151  152  153    204
   153   7.50000   0.00000   1.25000   0.50000   90.00000   0.00000   0.00100   152  153  154    204
   154   7.50000   0.00000   1.75000   0.50000   90.00000   0.00000   0.00100   153  154  155    204
   155   7.50000   0.00000   2.25000   0.50000   90.00000   0.00000   0.00100   154  155  156    204
   156   7.50000   0.00000   2.75000   0.50000   90.00000   0.00000   0.00100   155  156  157    204
   157   7.50000   0.00000   3.25000   0.50000   90.00000   0.00000   0.00100   156  157  158    204
   158   7.50000   0.00000   3.75000   0.50000   90.00000   0.00000   0.00100   157  158  159    204
   159   7.50000   0.00000   4.25000   0.50000   90.00000   0.00000   0.00100   158  159  160    204
   160   7.50000   0.00000   4.75000   0.50000   90.00000   0.00000   0.00100   159  160    0    204
   161  -7.50000   5.00000  -4.75000   0.50000   90.00000   0.00000   0.00100     0  161  162    301
   162  -7.50000   5.00000  -4.25000   0.50000   90.00000   0.00000   0.00100   161  162  163    301
   163  -7.50000   5.00000  -3.75000   0.50000   90.00000   0.00000   0.00100   162  163  164    301
   164  -7.50000   5.00000  -3.25000   0.50000   90.00000   0.00000   0.00100   163  164  165    301
   165  -7.50000   5.00000  -2.75000   0.50000   90.00000   0.00000   0.00100   164  165  166    301
   166  -7.50000   5.00000  -2.25000   0.50000   90.00000   0.00000   0.00100   165  166  167    301
   167  -7.50000   5.00000  -1.75000   0.50000   90.00000   0.00000   0.00100   166  167  168    301
   168  -7.50000   5.00000  -1.25000   0.50000   90.00000   0.00000   0.00100   167  168  169    301
   169  -7.50000   5.00000  -0.75000   0.50000   90.00000   0.00000   0.00100   168  169  170    301
   170  -7.50000   5.00000  -0.25000   0.50000   90.00000   0.00000   0.00100   169  170  171    301
   171  -7.50000   5.00000   0.25000   0.50000   90.00000   0.00000   0.00100   170  171  172    301
   172  -7.50000   5.00000   0.75000   0.50000   90.00000   0.00000   0.00100   171  172  173    301
   173  -7.50000   5.00000   1.25000   0.50000   90.00000   0.00000   0.00100   172  173  174    301
   174  -7.50000   5.00000   1.75000   0.50000   90.00000   0.00000   0.00100   173  174  175    301
   175  -7.50000   5.00000   2.25000   0.50000   90.00000   0.00000   0.00100   174  175  176    301
   176  -7.50000   5.00000   2.75000   0.50000   90.00000   0.00000   0.00100   175  176  177    301
   177  -7.50000   5.00000   3.25000   0.50000   90.00000   0.00000   0.00100   176  177  178    301
   178  -7.50000   5.00000   3.75000   0.50000   90.00000   0.00000   0.00100   177  178  179    301
   179  -7.50000   5.00000   4.25000   0.50000   90.00000   0.00000   0.00100   178  179  180    301
   180  -7.50000   5.00000   4.75000   0.50000   90.00000   0.00000   0.00100   179  180    0    301
   181  -2.50000   5.00000  -4.75000   0.50000   90.00000   0.00000   0.00100     0  181  182    302
   182  -2.50000   5.00000  -4.25000   0.50000   90.00000   0.00000   0.00100   181  182  183    302
   183  -2.50000   5.00000  -3.75000   0.50000   90.00000   0.00000   0.00100   182  183  184    302
   184  -2.50000   5.00000  -3.25000   0.50000   90.00000   0.00000   0.00100   183  184  185    302
   185  -2.50000   5.00000  -2.75000   0.50000   90.00000   0.00000   0.00100   184  185  186    302
   186  -2.50000   5.00000  -2.25000   0.50000   90.00000   0.00000   0.00100   185  186  187    302
   187  -2.50000   5.00000  -1.75000   0.50000   90.00000   0.00000   0.00100   186  187  188    302
   188  -2.50000   5.00000  -1.25000   0.50000   90.00000   0.00000   0.00100   187  188  189    302
   189  -2.50000   5.00000  -0.75000   0.50000   90.00000   0.00000   0.00100   188  189  190    302
   190  -2.50000   5.00000  -0.25000   0.50000   90.00000   0.00000   0.00100   189  190  191    302
   191  -2.50000   5.00000   0.25000   0.50000   90.00000   0.00000   0.00100   190  191  192    302
   192  -2.50000   5.00000   0.75000   0.50000   90.00000   0.00000   0.00100   191  192  193    302
   193  -2.50000   5.00000   1.25000   0.50000   90.00000   0.00000   0.00100   192  193  194    302
   194  -2.50000   5.00000   1.75000   0.50000   90.00000   0.00000   0.00100   193  194  195    302
   195  -2.50000   5.00000   2.25000   0.50000   90.00000   0.00000   0.00100   194  195  196    302
   196  -2.50000   5.00000   2.75000   0.50000   90.00000   0.00000   0.00100   195  196  197    302
   197  -2.50000   5.00000   3.25000   0.50000   90.00000   0.00000   0.00100   196  197  198    302
   198  -2.50000   5.00000   3.75000   0.50000   90.00000   0.00000   0.00100   197  198  199    302
   199  -2.50000   5.00000   4.25000   0.50000   90.00000   0.00000   0.00100   198  199  200    302
   200  -2.50000   5.00000   4.75000   0.50000   90.00000   0.00000   0.00100   199  200    0    302
   201   2.50000   5.00000  -4.75000   0.50000   90.00000   0.00000   0.00100     0  201  202    303
   202   2.50000   5.00000  -4.25000   0.50000   90.00000   0.00000   0.00100   201  202  203    303
   203   2.50000   5.00000  -3.75000   0.50000   90.00000   0.00000   0.00100   202  203  204    303
   204   2.50000   5.00000  -3.25000   0.50000   90.00000   0.00000   0.00100   203  204  205    303
   205   2.50000   5.00000  -2.75000   0.50000   90.00000   0.00000   0.00100   204  205  206    303
   206   2.50000   5.00000  -2.25000   0.50000   90.00000   0.00000   0.00100   205  206  207    303
   207   2.50000   5.00000  -1.75000   0.50000   90.00000   0.00000   0.00100   206  207  208    303
   208   2.50000   5.00000  -1.25000   0.50000   90.00000   0.00000   0.00100   207  208  209    303
   209   2.50000   5.00000  -0.75000   0.50000   90.00000   0.00000   0.00100   208  209  210    303
   210   2.50000   5.00000  -0.25000   0.50000   90.00000   0.00000   0.00100   209  210  211    303
   211   2.50000   5.00000   0.25000   0.50000   90.00000   0.00000   0.00100   210  211  212    303
   212   2.50000   5.00000   0.75000   0.50000   90.00000   0.00000   0.00100   211  212  213    303
   213   2.50000   5.00000   1.25000   0.50000   90.00000   0.00000   0.00100   212  213  214    303
   214   2.50000   5.00000   1.75000   0.50000   90.00000   0.00000   0.00100   213  214  215    303
   215   2.50000   5.00000   2.25000   0.50000   90.00000   0.00000   0.00100   214  215  216    303
   216   2.50000   5.00000   2.75000   0.50000   90.00000   0.00000   0.00100   215  216  217    303
   217   2.50000   5.00000   3.25000   0.50000   90.00000   0.00000   0.00100   216  217  218    303
   218   2.50000   5.00000   3.75000   0.50000   90.00000   0.00000   0.00100   217  218  219    303
   219   2.50000   5.00000   4.25000   0.50000   90.00000   0.00000   0.00100   218  219  220    303
   220   2.50000   5.00000   4.75000   0.50000   90.00000   0.00000   0.00100   219  220    0    303
   221   7.50000   5.00000  -4.75000   0.50000   90.00000   0.00000   0.00100     0  221  222    304
   222   7.50000   5.00000  -4.25000   0.50000   90.00000   0.00000   0.00100   221  222  223    304
   223   7.50000   5.00000  -3.75000   0.50000   90.00000   0.00000   0.00100   222  223  224    304
   224   7.50000   5.00000  -3.25000   0.50000   90.00000   0.00000   0.00100   223  224  225    304
   225   7.50000   5.00000  -2.75000   0.50000   90.00000   0.00000   0.00100   224  225  226    304
   226   7.50000   5.00000  -2.25000   0.50000   90.00000   0.00000   0.00100   225  226  227    304
   227   7.50000   5.00000  -1.75000   0.50000   90.00000   0.00000   0.00100   226  227  228    304
   228   7.50000   5.00000  -1.25000   0.50000   90.00000   0.00000   0.00100   227  228  229    304
   229   7.50000   5.00000  -0.75000   0.50000   90.00000   0.00000   0.00100   228  229  230    304
   230   7.50000   5.00000  -0.25000   0.50000   90.00000   0.00000   0.00100   229  230  231    304
   231   7.50000   5.00000   0.25000   0.50000   90.00000   0.00000   0.00100   230  231  232    304
   232   7.50000   5.00000   0.75000   0.50000   90.00000   0.00000   0.00100   231  232  233    304
   233   7.50000   5.00000   1.25000   0.50000   90.00000   0.00000   0.00100   232  233  234    304
   234   7.50000   5.00000   1.75000   0.50000   90.00000   0.00000   0.00100   233  234  235    304
   235   7.50000   5.00000   2.25000   0.50000   90.00000   0.00000   0.00100   234  235  236    304
   236   7.50000   5.00000   2.75000   0.50000   90.00000   0.00000   0.00100   235  236  237    304
   237   7.50000   5.00000   3.25000   0.50000   90.00000   0.00000   0.00100   236  237  238    304
   238   7.50000   5.00000   3.75000   0.50000   90.00000   0.00000   0.00100   237  238  239    304
   239   7.50000   5.00000   4.25000   0.50000   90.00000   0.00000   0.00100   238  239  240    304
   240   7.50000   5.00000   4.75000   0.50000   90.00000   0.00000   0.00100   239  240    0    304






 ***** DATA CARD NO.  1   GN  -1     0     0     0  1.00000E+01  1.00000E-02  0.00000E+00  0.00000E+00  0.00000E+00  0.00000E+00
 ***** DATA CARD NO.  2   FR   0     0     0     0  1.50000E+02  0.00000E+00  0.00000E+00  0.00000E+00  0.00000E+00  0.00000E+00
 ***** DATA CARD NO.  3   EX   0   101    10     0  6.16290E+01  7.94290E+01  0.00000E+00  0.00000E+00  0.00000E+00  0.00000E+00
 ***** DATA CARD NO.  4   EX   0   102    10     0 -8.07960E+01 -5.84890E+01  0.00000E+00  0.00000E+00  0.00000E+00  0.00000E+00
 ***** DATA CARD NO.  5   EX   0   103    10     0  5.41110E+01  8.29240E+01  0.00000E+00  0.00000E+00  0.00000E+00  0.00000E+00
 ***** DATA CARD NO.  6   EX   0   104    10     0  3.96030E+01 -9.24190E+01  0.00000E+00  0.00000E+00  0.00000E+00  0.00000E+00
 ***** DATA CARD NO.  7   EX   0   201    10     0  7.91700E+01  6.18860E+01  0.00000E+00  0.00000E+00  0.00000E+00  0.00000E+00
 ***** DATA CARD NO.  8   EX   0   202    10     0 -6.97490E+01 -7.10960E+01  0.00000E+00  0.00000E+00  0.00000E+00  0.00000E+00
 ***** DATA CARD NO.  9   EX   0   203    10     0  7.39980E+01  6.75450E+01  0.00000E+00  0.00000E+00  0.00000E+00  0.00000E+00
 ***** DATA CARD NO. 10   EX   0   204    10     0  5.52040E+01 -8.55740E+01  0.00000E+00  0.00000E+00  0.00000E+00  0.00000E+00
 ***** DATA CARD NO. 11   EX   0   301    10     0  6.40460E+01  7.63360E+01  0.00000E+00  0.00000E+00  0.00000E+00  0.00000E+00
 ***** DATA CARD NO. 12   EX   0   302    10     0 -7.55450E+01 -6.50290E+01  0.00000E+00  0.00000E+00  0.00000E+00  0.00000E+00
 ***** DATA CARD NO. 13   EX   0   303    10     0  7.87600E+01  6.09890E+01  0.00000E+00  0.00000E+00  0.00000E+00  0.00000E+00
 ***** DATA CARD NO. 14   EX   0   304    10     0  5.01090E+01 -8.50350E+01  0.00000E+00  0.00000E+00  0.00000E+00  0.00000E+00
 ***** DATA CARD NO. 15   RP   0    19    72  1010  0.00000E+00  0.00000E+00  5.00000E+00  5.00000E+00  0.00000E+00  0.00000E+00




                                 - - - - - - FREQUENCY - - - - - -

                                    FREQUENCY= 1.5000E+02 MHZ
                                    WAVELENGTH= 1.9987E+00 METERS




                    APPROXIMATE INTEGRATION EMPLOYED FOR SEGMENTS MORE THAN   1.000 WAVELENGTHS APART



                               - - - STRUCTURE IMPEDANCE LOADING - - -

                                   THIS STRUCTURE IS NOT LOADED



                                  - - - ANTENNA ENVIRONMENT - - -

                                            FREE SPACE



                                - - - MATRIX TIMING - - -

                        FILL=    0.016 SEC.,  FACTOR=    0.016 SEC.



                                          - - - ANTENNA INPUT PARAMETERS - - -

   TAG   SEG.    VOLTAGE (VOLTS)         CURRENT (AMPS)         IMPEDANCE (OHMS)        ADMITTANCE (MHOS)      POWER
   NO.   NO.    REAL        IMAG.       REAL        IMAG.       REAL        IMAG.       REAL        IMAG.     (WATTS)
   101    10 6.16290E+01 7.94290E+01 2.87078E-01 1.38851E-01 2.82429E+02 1.40078E+02 2.84168E-03-1.40941E-03 1.43606E+01
   102    30-8.07960E+01-5.84890E+01-3.16631E-01-5.19799E-02 2.78007E+02 1.39084E+02 2.87696E-03-1.43931E-03 1.43114E+01
   103    50 5.41110E+01 8.29240E+01 2.78531E-01 1.60868E-01 2.74618E+02 1.39111E+02 2.89783E-03-1.46793E-03 1.42057E+01
   104    70 3.96030E+01-9.24190E+01-2.94034E-03-3.18209E-01 2.89260E+02 1.27129E+02 2.89743E-03-1.27341E-03 1.46460E+01
   201    90 7.91700E+01 6.18860E+01 3.11018E-01 5.05355E-02 2.79503E+02 1.53564E+02 2.74820E-03-1.50991E-03 1.38754E+01
   202   110-6.97490E+01-7.10960E+01-2.98385E-01-8.18433E-02 2.78181E+02 1.61968E+02 2.68467E-03-1.56312E-03 1.33154E+01
   203   130 7.39980E+01 6.75450E+01 3.22398E-01 7.12422E-02 2.62979E+02 1.51396E+02 2.85602E-03-1.64420E-03 1.43344E+01
   204   150 5.52040E+01-8.55740E+01 5.22671E-02-3.01836E-01 3.06006E+02 1.29905E+02 2.76891E-03-1.17545E-03 1.43573E+01
   301   170 6.40460E+01 7.63360E+01 2.91342E-01 1.26426E-01 2.80678E+02 1.40217E+02 2.85123E-03-1.42438E-03 1.41550E+01
   302   190-7.55450E+01-6.50290E+01-3.08801E-01-7.58793E-02 2.79508E+02 1.41904E+02 2.84453E-03-1.44414E-03 1.41314E+01
   303   210 7.87600E+01 6.09890E+01 3.20354E-01 6.31839E-02 2.72791E+02 1.36577E+02 2.93109E-03-1.46750E-03 1.45423E+01
   304   230 5.01090E+01-8.50350E+01 3.94541E-02-3.09371E-01 2.90791E+02 1.24886E+02 2.90339E-03-1.24692E-03 1.41422E+01



                             - - - CURRENTS AND LOCATION - - -

                                 DISTANCES IN WAVELENGTHS


  SEG.  TAG    COORD. OF SEG. CENTER     SEG.            - - - CURRENT (AMPS) - - -
  NO.   NO.     X        Y        Z      LENGTH     REAL        IMAG.       MAG.        PHASE
     1  101  -3.7525  -2.5017  -2.3766  0.25017   3.1289E-01  9.5580E-02  3.2716E-01   16.987
     2  101  -3.7525  -2.5017  -2.1264  0.25017   2.5630E-01  1.1969E-01  2.8287E-01   25.032
     3  101  -3.7525  -2.5017  -1.8763  0.25017  -3.2547E-01 -7.5931E-02  3.3421E-01 -166.868
     4  101  -3.7525  -2.5017  -1.6261  0.25017  -2.5146E-01 -1.2437E-01  2.8054E-01 -153.684
     5  101  -3.7525  -2.5017  -1.3759  0.25017   3.2241E-01  7.3420E-02  3.3067E-01   12.829
     6  101  -3.7525  -2.5017  -1.1258  0.25017   2.4100E-01  1.3942E-01  2.7842E-01   30.050
     7  101  -3.7525  -2.5017  -0.8756  0.25017  -3.3170E-01 -5.6278E-02  3.3644E-01 -170.371
     8  101  -3.7525  -2.5017  -0.6254  0.25017  -2.4216E-01 -1.3422E-01  2.7687E-01 -151.002
     9  101  -3.7525  -2.5017  -0.3753  0.25017   3.3824E-01  6.5519E-02  3.4452E-01   10.963
    10  101  -3.7525  -2.5017  -0.1251  0.25017   2.8708E-01  1.3885E-01  3.1889E-01   25.812
    11  101  -3.7525  -2.5017   0.1251  0.25017  -1.3089E-01 -1.7797E-01  2.2092E-01 -126.333
    12  101  -3.7525  -2.5017   0.3753  0.25017  -2.3884E-01 -1.4958E-01  2.8181E-01 -147.941
    13  101  -3.7525  -2.5017   0.6254  0.25017   1.3598E-01  1.7204E-01  2.1929E-01   51.678
    14  101  -3.7525  -2.5017   0.8756  0.25017   2.3177E-01  1.4315E-01  2.7241E-01   31.702
    15  101  -3.7525  -2.5017   1.1258  0.25017  -1.4286E-01 -1.7189E-01  2.2351E-01 -129.730
    16  101  -3.7525  -2.5017   1.3759  0.25017  -2.2558E-01 -1.4350E-01  2.6735E-01 -147.537
    17  101  -3.7525  -2.5017   1.6261  0.25017   1.5601E-01  1.7385E-01  2.3359E-01   48.097
    18  101  -3.7525  -2.5017   1.8763  0.25017   2.3171E-01  1.5346E-01  2.7792E-01   33.517
    19  101  -3.7525  -2.5017   2.1264  0.25017  -1.5501E-01 -1.6732E-01  2.2809E-01 -132.813
    20  101  -3.7525  -2.5017   2.3766  0.25017  -2.0954E-01 -1.6357E-01  2.6582E-01 -142.023
    21  102  -1.2508  -2.5017  -2.3766  0.25017  -3.3125E-01 -4.6058E-03  3.3129E-01 -179.203
    22  102  -1.2508  -2.5017  -2.1264  0.25017  -2.7806E-01 -3.9859E-02  2.8090E-01 -171.842
    23  102  -1.2508  -2.5017  -1.8763  0.25017   3.4462E-01 -1.2124E-02  3.4483E-01   -2.015
    24  102  -1.2508  -2.5017  -1.6261  0.25017   2.8086E-01  5.0054E-02  2.8529E-01   10.105
    25  102  -1.2508  -2.5017  -1.3759  0.25017  -3.3522E-01  1.3698E-02  3.3550E-01  177.660
    26  102  -1.2508  -2.5017  -1.1258  0.25017  -2.6962E-01 -7.2190E-02  2.7912E-01 -165.011
    27  102  -1.2508  -2.5017  -0.8756  0.25017   3.4316E-01 -3.8799E-02  3.4534E-01   -6.451
    28  102  -1.2508  -2.5017  -0.6254  0.25017   2.6942E-01  6.3917E-02  2.7690E-01   13.346
    29  102  -1.2508  -2.5017  -0.3753  0.25017  -3.5551E-01  3.3406E-02  3.5708E-01  174.632
    30  102  -1.2508  -2.5017  -0.1251  0.25017  -3.1663E-01 -5.1980E-02  3.2087E-01 -170.677
    31  102  -1.2508  -2.5017   0.1251  0.25017   1.9222E-01  1.3384E-01  2.3423E-01   34.848
    32  102  -1.2508  -2.5017   0.3753  0.25017   2.8416E-01  7.4367E-02  2.9373E-01   14.666
    33  102  -1.2508  -2.5017   0.6254  0.25017  -1.8181E-01 -1.3123E-01  2.2422E-01 -144.178
    34  102  -1.2508  -2.5017   0.8756  0.25017  -2.6561E-01 -7.5073E-02  2.7601E-01 -164.217
    35  102  -1.2508  -2.5017   1.1258  0.25017   1.9108E-01  1.2632E-01  2.2906E-01   33.469
    36  102  -1.2508  -2.5017   1.3759  0.25017   2.5592E-01  7.5995E-02  2.6696E-01   16.539
    37  102  -1.2508  -2.5017   1.6261  0.25017  -2.1204E-01 -1.2579E-01  2.4654E-01 -149.321
    38  102  -1.2508  -2.5017   1.8763  0.25017  -2.7343E-01 -8.5221E-02  2.8641E-01 -162.689
    39  102  -1.2508  -2.5017   2.1264  0.25017   2.0265E-01  1.2002E-01  2.3553E-01   30.635
    40  102  -1.2508  -2.5017   2.3766  0.25017   2.5308E-01  1.0227E-01  2.7297E-01   22.003
    41  103   1.2508  -2.5017  -2.3766  0.25017   3.1038E-01  1.2231E-01  3.3361E-01   21.507
    42  103   1.2508  -2.5017  -2.1264  0.25017   2.5184E-01  1.3649E-01  2.8645E-01   28.457
    43  103   1.2508  -2.5017  -1.8763  0.25017  -3.2418E-01 -1.1041E-01  3.4247E-01 -161.192
    44  103   1.2508  -2.5017  -1.6261  0.25017  -2.4873E-01 -1.4671E-01  2.8878E-01 -149.466
    45  103   1.2508  -2.5017  -1.3759  0.25017   3.1450E-01  1.0313E-01  3.3098E-01   18.156
    46  103   1.2508  -2.5017  -1.1258  0.25017   2.2586E-01  1.5783E-01  2.7554E-01   34.946
    47  103   1.2508  -2.5017  -0.8756  0.25017  -3.3739E-01 -8.9018E-02  3.4894E-01 -165.220
    48  103   1.2508  -2.5017  -0.6254  0.25017  -2.3654E-01 -1.5443E-01  2.8249E-01 -146.861
    49  103   1.2508  -2.5017  -0.3753  0.25017   3.3880E-01  9.7420E-02  3.5253E-01   16.042
    50  103   1.2508  -2.5017  -0.1251  0.25017   2.7853E-01  1.6087E-01  3.2165E-01   30.009
    51  103   1.2508  -2.5017   0.1251  0.25017  -1.2942E-01 -1.9522E-01  2.3423E-01 -123.542
    52  103   1.2508  -2.5017   0.3753  0.25017  -2.3690E-01 -1.7407E-01  2.9398E-01 -143.692
    53  103   1.2508  -2.5017   0.6254  0.25017   1.2676E-01  1.8360E-01  2.2311E-01   55.377
    54  103   1.2508  -2.5017   0.8756  0.25017   2.2448E-01  1.6452E-01  2.7831E-01   36.238
    55  103   1.2508  -2.5017   1.1258  0.25017  -1.3528E-01 -1.8204E-01  2.2680E-01 -126.618
    56  103   1.2508  -2.5017   1.3759  0.25017  -2.1673E-01 -1.5838E-01  2.6843E-01 -143.842
    57  103   1.2508  -2.5017   1.6261  0.25017   1.5080E-01  1.9403E-01  2.4575E-01   52.146
    58  103   1.2508  -2.5017   1.8763  0.25017   2.2424E-01  1.7870E-01  2.8674E-01   38.553
    59  103   1.2508  -2.5017   2.1264  0.25017  -1.4928E-01 -1.7969E-01  2.3361E-01 -129.720
    60  103   1.2508  -2.5017   2.3766  0.25017  -2.0222E-01 -1.8271E-01  2.7253E-01 -137.902
    61  104   3.7525  -2.5017  -2.3766  0.25017  -5.0728E-02 -3.1962E-01  3.2362E-01  -99.019
    62  104   3.7525  -2.5017  -2.1264  0.25017   4.1449E-03 -2.8478E-01  2.8481E-01  -89.166
    63  104   3.7525  -2.5017  -1.8763  0.25017   8.4431E-02  3.1815E-01  3.2917E-01   75.138
    64  104   3.7525  -2.5017  -1.6261  0.25017  -5.3860E-03  2.7970E-01  2.7975E-01   91.103
    65  104   3.7525  -2.5017  -1.3759  0.25017  -8.9993E-02 -3.1937E-01  3.3181E-01 -105.737
    66  104   3.7525  -2.5017  -1.1258  0.25017   9.1812E-03 -2.8636E-01  2.8650E-01  -88.164
    67  104   3.7525  -2.5017  -0.8756  0.25017   9.0181E-02  3.0823E-01  3.2115E-01   73.692
    68  104   3.7525  -2.5017  -0.6254  0.25017  -2.2711E-02  2.7545E-01  2.7639E-01   94.713
    69  104   3.7525  -2.5017  -0.3753  0.25017  -9.9462E-02 -3.2285E-01  3.3783E-01 -107.123
    70  104   3.7525  -2.5017  -0.1251  0.25017  -2.9403E-03 -3.1821E-01  3.1822E-01  -90.529
    71  104   3.7525  -2.5017   0.1251  0.25017  -1.0078E-01  1.9242E-01  2.1721E-01  117.643
    72  104   3.7525  -2.5017   0.3753  0.25017  -2.5750E-02  2.7256E-01  2.7377E-01   95.397
    73  104   3.7525  -2.5017   0.6254  0.25017   1.0035E-01 -2.0399E-01  2.2734E-01  -63.805
    74  104   3.7525  -2.5017   0.8756  0.25017   3.1362E-02 -2.6867E-01  2.7050E-01  -83.342
    75  104   3.7525  -2.5017   1.1258  0.25017  -9.1021E-02  2.1097E-01  2.2977E-01  113.337
    76  104   3.7525  -2.5017   1.3759  0.25017  -3.3428E-02  2.6865E-01  2.7072E-01   97.093
    77  104   3.7525  -2.5017   1.6261  0.25017   8.1009E-02 -2.1571E-01  2.3042E-01  -69.417
    78  104   3.7525  -2.5017   1.8763  0.25017   2.8053E-02 -2.6823E-01  2.6969E-01  -84.029
    79  104   3.7525  -2.5017   2.1264  0.25017  -8.8407E-02  2.2443E-01  2.4122E-01  111.500
    80  104   3.7525  -2.5017   2.3766  0.25017  -5.6613E-02  2.6497E-01  2.7095E-01  102.060
    81  201  -3.7525   0.0000  -2.3766  0.25017   3.2534E-01 -2.1331E-03  3.2535E-01   -0.376
    82  201  -3.7525   0.0000  -2.1264  0.25017   2.8201E-01  3.6364E-02  2.8435E-01    7.347
    83  201  -3.7525   0.0000  -1.8763  0.25017  -3.2339E-01  2.3503E-02  3.2424E-01  175.843
    84  201  -3.7525   0.0000  -1.6261  0.25017  -2.7014E-01 -4.0355E-02  2.7313E-01 -171.504
    85  201  -3.7525   0.0000  -1.3759  0.25017   3.2345E-01 -2.3218E-02  3.2428E-01   -4.106
    86  201  -3.7525   0.0000  -1.1258  0.25017   2.6237E-01  5.3582E-02  2.6779E-01   11.542
    87  201  -3.7525   0.0000  -0.8756  0.25017  -3.3138E-01  3.0728E-02  3.3280E-01  174.702
    88  201  -3.7525   0.0000  -0.6254  0.25017  -2.6397E-01 -6.2131E-02  2.7118E-01 -166.755
    89  201  -3.7525   0.0000  -0.3753  0.25017   3.4066E-01 -3.3772E-02  3.4233E-01   -5.662
    90  201  -3.7525   0.0000  -0.1251  0.25017   3.1102E-01  5.0536E-02  3.1510E-01    9.229
    91  201  -3.7525   0.0000   0.1251  0.25017  -1.6440E-01 -1.2753E-01  2.0806E-01 -142.198
    92  201  -3.7525   0.0000   0.3753  0.25017  -2.6418E-01 -7.2302E-02  2.7390E-01 -164.694
    93  201  -3.7525   0.0000   0.6254  0.25017   1.7090E-01  1.2353E-01  2.1087E-01   35.860
    94  201  -3.7525   0.0000   0.8756  0.25017   2.6001E-01  7.3576E-02  2.7022E-01   15.800
    95  201  -3.7525   0.0000   1.1258  0.25017  -1.7246E-01 -1.1634E-01  2.0804E-01 -145.998
    96  201  -3.7525   0.0000   1.3759  0.25017  -2.5134E-01 -7.5723E-02  2.6250E-01 -163.234
    97  201  -3.7525   0.0000   1.6261  0.25017   1.8187E-01  1.0785E-01  2.1144E-01   30.667
    98  201  -3.7525   0.0000   1.8763  0.25017   2.4826E-01  7.5829E-02  2.5958E-01   16.985
    99  201  -3.7525   0.0000   2.1264  0.25017  -1.9393E-01 -1.0332E-01  2.1973E-01 -151.953
   100  201  -3.7525   0.0000   2.3766  0.25017  -2.4068E-01 -8.7025E-02  2.5593E-01 -160.121
   101  202  -1.2508   0.0000  -2.3766  0.25017  -3.2070E-01 -3.1160E-02  3.2221E-01 -174.450
   102  202  -1.2508   0.0000  -2.1264  0.25017  -2.6718E-01 -5.9021E-02  2.7362E-01 -167.543
   103  202  -1.2508   0.0000  -1.8763  0.25017   3.2717E-01  1.7150E-02  3.2762E-01    3.001
   104  202  -1.2508   0.0000  -1.6261  0.25017   2.5862E-01  6.4324E-02  2.6650E-01   13.967
   105  202  -1.2508   0.0000  -1.3759  0.25017  -3.2427E-01 -2.2087E-02  3.2502E-01 -176.103
   106  202  -1.2508   0.0000  -1.1258  0.25017  -2.4724E-01 -8.6686E-02  2.6200E-01 -160.678
   107  202  -1.2508   0.0000  -0.8756  0.25017   3.3179E-01  4.6653E-03  3.3183E-01    0.806
   108  202  -1.2508   0.0000  -0.6254  0.25017   2.4039E-01  8.7841E-02  2.5594E-01   20.073
   109  202  -1.2508   0.0000  -0.3753  0.25017  -3.5362E-01 -5.4551E-03  3.5366E-01 -179.116
   110  202  -1.2508   0.0000  -0.1251  0.25017  -2.9838E-01 -8.1843E-02  3.0941E-01 -164.662
   111  202  -1.2508   0.0000   0.1251  0.25017   1.5999E-01  1.4212E-01  2.1400E-01   41.614
   112  202  -1.2508   0.0000   0.3753  0.25017   2.6335E-01  9.6019E-02  2.8031E-01   20.032
   113  202  -1.2508   0.0000   0.6254  0.25017  -1.4671E-01 -1.4289E-01  2.0479E-01 -135.757
   114  202  -1.2508   0.0000   0.8756  0.25017  -2.4338E-01 -1.0139E-01  2.6366E-01 -157.384
   115  202  -1.2508   0.0000   1.1258  0.25017   1.5380E-01  1.3322E-01  2.0347E-01   40.900
   116  202  -1.2508   0.0000   1.3759  0.25017   2.2868E-01  1.0250E-01  2.5060E-01   24.143
   117  202  -1.2508   0.0000   1.6261  0.25017  -1.7609E-01 -1.2384E-01  2.1528E-01 -144.883
   118  202  -1.2508   0.0000   1.8763  0.25017  -2.3892E-01 -9.8654E-02  2.5849E-01 -157.564
   119  202  -1.2508   0.0000   2.1264  0.25017   1.7805E-01  1.2561E-01  2.1790E-01   35.203
   120  202  -1.2508   0.0000   2.3766  0.25017   2.2551E-01  1.1342E-01  2.5243E-01   26.699
   121  203   1.2508   0.0000  -2.3766  0.25017   3.4610E-01  2.1696E-02  3.4678E-01    3.587
   122  203   1.2508   0.0000  -2.1264  0.25017   3.0132E-01  4.9659E-02  3.0538E-01    9.359
   123  203   1.2508   0.0000  -1.8763  0.25017  -3.3953E-01 -8.9098E-03  3.3965E-01 -178.497
   124  203   1.2508   0.0000  -1.6261  0.25017  -2.8699E-01 -5.9279E-02  2.9305E-01 -168.329
   125  203   1.2508   0.0000  -1.3759  0.25017   3.3221E-01  4.6678E-03  3.3225E-01    0.805
   126  203   1.2508   0.0000  -1.1258  0.25017   2.6325E-01  6.7782E-02  2.7184E-01   14.439
   127  203   1.2508   0.0000  -0.8756  0.25017  -3.5631E-01 -2.4574E-03  3.5631E-01 -179.605
   128  203   1.2508   0.0000  -0.6254  0.25017  -2.7385E-01 -8.0192E-02  2.8535E-01 -163.678
   129  203   1.2508   0.0000  -0.3753  0.25017   3.6352E-01 -1.1403E-03  3.6352E-01   -0.180
   130  203   1.2508   0.0000  -0.1251  0.25017   3.2240E-01  7.1242E-02  3.3018E-01   12.461
   131  203   1.2508   0.0000   0.1251  0.25017  -1.7815E-01 -1.5139E-01  2.3379E-01 -139.643
   132  203   1.2508   0.0000   0.3753  0.25017  -2.8227E-01 -1.0057E-01  2.9965E-01 -160.390
   133  203   1.2508   0.0000   0.6254  0.25017   1.7356E-01  1.3644E-01  2.2077E-01   38.171
   134  203   1.2508   0.0000   0.8756  0.25017   2.6920E-01  9.6527E-02  2.8599E-01   19.726
   135  203   1.2508   0.0000   1.1258  0.25017  -1.7803E-01 -1.2624E-01  2.1824E-01 -144.660
   136  203   1.2508   0.0000   1.3759  0.25017  -2.5724E-01 -8.9619E-02  2.7240E-01 -160.792
   137  203   1.2508   0.0000   1.6261  0.25017   1.9252E-01  1.2896E-01  2.3172E-01   33.816
   138  203   1.2508   0.0000   1.8763  0.25017   2.5611E-01  1.0005E-01  2.7496E-01   21.337
   139  203   1.2508   0.0000   2.1264  0.25017  -2.0675E-01 -1.1701E-01  2.3757E-01 -150.492
   140  203   1.2508   0.0000   2.3766  0.25017  -2.5212E-01 -1.0612E-01  2.7354E-01 -157.174
   141  204   3.7525   0.0000  -2.3766  0.25017   3.7493E-03 -3.0636E-01  3.0639E-01  -89.299
   142  204   3.7525   0.0000  -2.1264  0.25017   5.0764E-02 -2.6865E-01  2.7341E-01  -79.300
   143  204   3.7525   0.0000  -1.8763  0.25017   2.6718E-02  3.0426E-01  3.0543E-01   84.982
   144  204   3.7525   0.0000  -1.6261  0.25017  -5.4185E-02  2.5527E-01  2.6096E-01  101.984
   145  204   3.7525   0.0000  -1.3759  0.25017  -3.5669E-02 -3.1364E-01  3.1566E-01  -96.488
   146  204   3.7525   0.0000  -1.1258  0.25017   5.2491E-02 -2.6321E-01  2.6839E-01  -78.722
   147  204   3.7525   0.0000  -0.8756  0.25017   2.8337E-02  3.0601E-01  3.0732E-01   84.709
   148  204   3.7525   0.0000  -0.6254  0.25017  -7.2877E-02  2.5538E-01  2.6557E-01  105.927
   149  204   3.7525   0.0000  -0.3753  0.25017  -4.0296E-02 -3.1836E-01  3.2090E-01  -97.214
   150  204   3.7525   0.0000  -0.1251  0.25017   5.2267E-02 -3.0184E-01  3.0633E-01  -80.176
   151  204   3.7525   0.0000   0.1251  0.25017  -1.3958E-01  1.5095E-01  2.0559E-01  132.760
   152  204   3.7525   0.0000   0.3753  0.25017  -7.6607E-02  2.4483E-01  2.5654E-01  107.375
   153  204   3.7525   0.0000   0.6254  0.25017   1.3714E-01 -1.7090E-01  2.1912E-01  -51.253
   154  204   3.7525   0.0000   0.8756  0.25017   7.8715E-02 -2.4793E-01  2.6013E-01  -72.386
   155  204   3.7525   0.0000   1.1258  0.25017  -1.3040E-01  1.7487E-01  2.1814E-01  126.713
   156  204   3.7525   0.0000   1.3759  0.25017  -8.1744E-02  2.5012E-01  2.6314E-01  108.099
   157  204   3.7525   0.0000   1.6261  0.25017   1.2084E-01 -1.7006E-01  2.0862E-01  -54.603
   158  204   3.7525   0.0000   1.8763  0.25017   7.8749E-02 -2.3540E-01  2.4822E-01  -71.503
   159  204   3.7525   0.0000   2.1264  0.25017  -1.2360E-01  1.8810E-01  2.2508E-01  123.309
   160  204   3.7525   0.0000   2.3766  0.25017  -1.0053E-01  2.3076E-01  2.5171E-01  113.540
   161  301  -3.7525   2.5017  -2.3766  0.25017   3.1570E-01  8.2627E-02  3.2633E-01   14.667
   162  301  -3.7525   2.5017  -2.1264  0.25017   2.6058E-01  1.0836E-01  2.8221E-01   22.579
   163  301  -3.7525   2.5017  -1.8763  0.25017  -3.2684E-01 -6.3002E-02  3.3286E-01 -169.089
   164  301  -3.7525   2.5017  -1.6261  0.25017  -2.5562E-01 -1.1330E-01  2.7960E-01 -156.095
   165  301  -3.7525   2.5017  -1.3759  0.25017   3.2343E-01  6.0595E-02  3.2906E-01   10.611
   166  301  -3.7525   2.5017  -1.1258  0.25017   2.4512E-01  1.2841E-01  2.7672E-01   27.647
   167  301  -3.7525   2.5017  -0.8756  0.25017  -3.3253E-01 -4.3810E-02  3.3540E-01 -172.495
   168  301  -3.7525   2.5017  -0.6254  0.25017  -2.4602E-01 -1.2395E-01  2.7548E-01 -153.260
   169  301  -3.7525   2.5017  -0.3753  0.25017   3.3996E-01  5.2087E-02  3.4393E-01    8.711
   170  301  -3.7525   2.5017  -0.1251  0.25017   2.9134E-01  1.2643E-01  3.1759E-01   23.458
   171  301  -3.7525   2.5017   0.1251  0.25017  -1.3876E-01 -1.7167E-01  2.2074E-01 -128.949
   172  301  -3.7525   2.5017   0.3753  0.25017  -2.4465E-01 -1.3923E-01  2.8150E-01 -150.357
   173  301  -3.7525   2.5017   0.6254  0.25017   1.4248E-01  1.6553E-01  2.1840E-01   49.279
   174  301  -3.7525   2.5017   0.8756  0.25017   2.3656E-01  1.3350E-01  2.7162E-01   29.438
   175  301  -3.7525   2.5017   1.1258  0.25017  -1.4945E-01 -1.6452E-01  2.2227E-01 -132.253
   176  301  -3.7525   2.5017   1.3759  0.25017  -2.3000E-01 -1.3368E-01  2.6603E-01 -149.833
   177  301  -3.7525   2.5017   1.6261  0.25017   1.6310E-01  1.6596E-01  2.3269E-01   45.498
   178  301  -3.7525   2.5017   1.8763  0.25017   2.3657E-01  1.4305E-01  2.7646E-01   31.160
   179  301  -3.7525   2.5017   2.1264  0.25017  -1.6240E-01 -1.5985E-01  2.2787E-01 -135.453
   180  301  -3.7525   2.5017   2.3766  0.25017  -2.1587E-01 -1.5410E-01  2.6523E-01 -144.478
   181  302  -1.2508   2.5017  -2.3766  0.25017  -3.2727E-01 -2.9092E-02  3.2856E-01 -174.920
   182  302  -1.2508   2.5017  -2.1264  0.25017  -2.7065E-01 -6.1789E-02  2.7762E-01 -167.140
   183  302  -1.2508   2.5017  -1.8763  0.25017   3.4361E-01  1.1554E-02  3.4380E-01    1.926
   184  302  -1.2508   2.5017  -1.6261  0.25017   2.7371E-01  7.0653E-02  2.8268E-01   14.474
   185  302  -1.2508   2.5017  -1.3759  0.25017  -3.3519E-01 -1.0272E-02  3.3535E-01 -178.245
   186  302  -1.2508   2.5017  -1.1258  0.25017  -2.6360E-01 -9.2522E-02  2.7937E-01 -160.659
   187  302  -1.2508   2.5017  -0.8756  0.25017   3.4174E-01 -1.4744E-02  3.4205E-01   -2.470
   188  302  -1.2508   2.5017  -0.6254  0.25017   2.6224E-01  8.3876E-02  2.7533E-01   17.736
   189  302  -1.2508   2.5017  -0.3753  0.25017  -3.5315E-01  8.4919E-03  3.5325E-01  178.623
   190  302  -1.2508   2.5017  -0.1251  0.25017  -3.0880E-01 -7.5879E-02  3.1799E-01 -166.195
   191  302  -1.2508   2.5017   0.1251  0.25017   1.7698E-01  1.4312E-01  2.2761E-01   38.961
   192  302  -1.2508   2.5017   0.3753  0.25017   2.7314E-01  9.2654E-02  2.8843E-01   18.738
   193  302  -1.2508   2.5017   0.6254  0.25017  -1.6937E-01 -1.4274E-01  2.2150E-01 -139.878
   194  302  -1.2508   2.5017   0.8756  0.25017  -2.5649E-01 -9.3620E-02  2.7305E-01 -159.948
   195  302  -1.2508   2.5017   1.1258  0.25017   1.7881E-01  1.3855E-01  2.2621E-01   37.770
   196  302  -1.2508   2.5017   1.3759  0.25017   2.4767E-01  9.4998E-02  2.6526E-01   20.985
   197  302  -1.2508   2.5017   1.6261  0.25017  -1.9902E-01 -1.3758E-01  2.4195E-01 -145.344
   198  302  -1.2508   2.5017   1.8763  0.25017  -2.6430E-01 -1.0311E-01  2.8370E-01 -158.688
   199  302  -1.2508   2.5017   2.1264  0.25017   1.8996E-01  1.3288E-01  2.3182E-01   34.974
   200  302  -1.2508   2.5017   2.3766  0.25017   2.4225E-01  1.1898E-01  2.6989E-01   26.158
   201  303   1.2508   2.5017  -2.3766  0.25017   3.3811E-01  1.7373E-02  3.3855E-01    2.941
   202  303   1.2508   2.5017  -2.1264  0.25017   2.8968E-01  4.8349E-02  2.9368E-01    9.476
   203  303   1.2508   2.5017  -1.8763  0.25017  -3.4400E-01 -3.6451E-03  3.4402E-01 -179.393
   204  303   1.2508   2.5017  -1.6261  0.25017  -2.8825E-01 -6.2332E-02  2.9492E-01 -167.798
   205  303   1.2508   2.5017  -1.3759  0.25017   3.3157E-01 -5.1722E-03  3.3161E-01   -0.894
   206  303   1.2508   2.5017  -1.1258  0.25017   2.6661E-01  7.3844E-02  2.7665E-01   15.481
   207  303   1.2508   2.5017  -0.8756  0.25017  -3.5382E-01  1.9495E-02  3.5435E-01  176.846
   208  303   1.2508   2.5017  -0.6254  0.25017  -2.8102E-01 -7.1813E-02  2.9005E-01 -165.665
   209  303   1.2508   2.5017  -0.3753  0.25017   3.5335E-01 -1.4012E-02  3.5363E-01   -2.271
   210  303   1.2508   2.5017  -0.1251  0.25017   3.2035E-01  6.3184E-02  3.2653E-01   11.157
   211  303   1.2508   2.5017   0.1251  0.25017  -1.8647E-01 -1.5044E-01  2.3959E-01 -141.103
   212  303   1.2508   2.5017   0.3753  0.25017  -2.8248E-01 -9.4701E-02  2.9793E-01 -161.466
   213  303   1.2508   2.5017   0.6254  0.25017   1.8362E-01  1.3395E-01  2.2728E-01   36.111
   214  303   1.2508   2.5017   0.8756  0.25017   2.6988E-01  8.5305E-02  2.8304E-01   17.541
   215  303   1.2508   2.5017   1.1258  0.25017  -1.9115E-01 -1.3048E-01  2.3144E-01 -145.682
   216  303   1.2508   2.5017   1.3759  0.25017  -2.6301E-01 -7.9547E-02  2.7478E-01 -163.172
   217  303   1.2508   2.5017   1.6261  0.25017   2.0511E-01  1.4144E-01  2.4915E-01   34.590
   218  303   1.2508   2.5017   1.8763  0.25017   2.7115E-01  1.0226E-01  2.8979E-01   20.663
   219  303   1.2508   2.5017   2.1264  0.25017  -2.0355E-01 -1.2261E-01  2.3763E-01 -148.938
   220  303   1.2508   2.5017   2.3766  0.25017  -2.5398E-01 -1.0945E-01  2.7656E-01 -156.687
   221  304   3.7525   2.5017  -2.3766  0.25017  -6.8269E-03 -3.1629E-01  3.1637E-01  -91.236
   222  304   3.7525   2.5017  -2.1264  0.25017   4.2790E-02 -2.7743E-01  2.8071E-01  -81.232
   223  304   3.7525   2.5017  -1.8763  0.25017   4.1668E-02  3.1680E-01  3.1953E-01   82.507
   224  304   3.7525   2.5017  -1.6261  0.25017  -4.1638E-02  2.7082E-01  2.7400E-01   98.741
   225  304   3.7525   2.5017  -1.3759  0.25017  -4.6977E-02 -3.1905E-01  3.2249E-01  -98.376
   226  304   3.7525   2.5017  -1.1258  0.25017   4.3836E-02 -2.7652E-01  2.7998E-01  -80.992
   227  304   3.7525   2.5017  -0.8756  0.25017   4.5318E-02  3.0824E-01  3.1156E-01   81.636
   228  304   3.7525   2.5017  -0.6254  0.25017  -5.7554E-02  2.6361E-01  2.6981E-01  102.316
   229  304   3.7525   2.5017  -0.3753  0.25017  -5.2114E-02 -3.2450E-01  3.2866E-01  -99.123
   230  304   3.7525   2.5017  -0.1251  0.25017   3.9454E-02 -3.0937E-01  3.1188E-01  -82.732
   231  304   3.7525   2.5017   0.1251  0.25017  -1.2605E-01  1.7118E-01  2.1259E-01  126.367
   232  304   3.7525   2.5017   0.3753  0.25017  -6.3181E-02  2.5967E-01  2.6725E-01  103.675
   233  304   3.7525   2.5017   0.6254  0.25017   1.2474E-01 -1.8386E-01  2.2218E-01  -55.846
   234  304   3.7525   2.5017   0.8756  0.25017   6.6923E-02 -2.5574E-01  2.6435E-01  -75.335
   235  304   3.7525   2.5017   1.1258  0.25017  -1.1590E-01  1.9182E-01  2.2412E-01  121.140
   236  304   3.7525   2.5017   1.3759  0.25017  -6.7555E-02  2.5566E-01  2.6444E-01  104.801
   237  304   3.7525   2.5017   1.6261  0.25017   1.0732E-01 -1.9700E-01  2.2434E-01  -61.420
   238  304   3.7525   2.5017   1.8763  0.25017   6.1652E-02 -2.5450E-01  2.6187E-01  -76.383
   239  304   3.7525   2.5017   2.1264  0.25017  -1.1676E-01  2.0614E-01  2.3691E-01  119.528
   240  304   3.7525   2.5017   2.3766  0.25017  -9.0183E-02  2.4882E-01  2.6466E-01  109.923



                                        - - - POWER BUDGET - - -

                                           INPUT POWER   = 1.7038E+02 WATTS
                                           RADIATED POWER= 1.7038E+02 WATTS
                                           STRUCTURE LOSS= 0.0000E+00 WATTS
                                           NETWORK LOSS  = 0.0000E+00 WATTS
                                           EFFICIENCY    = 100.00 PERCENT



                                                - - - RADIATION PATTERNS - - -

  - - ANGLES - -       - DIRECTIVE GAINS -       - - - POLARIZATION - - -    - - - E(THETA) - - -    - - - E(PHI) - - -
  THETA     PHI        VERT.   HOR.    TOTAL      AXIAL     TILT   SENSE     MAGNITUDE    PHASE      MAGNITUDE    PHASE 
 DEGREES  DEGREES       DB      DB      DB        RATIO     DEG.              VOLTS/M    DEGREES      VOLTS/M    DEGREES
    0.00     0.00    -999.99 -999.99 -999.99    0.00000     0.00            0.00000E+00     0.00    0.00000E+00     0.00
    5.00     0.00      -7.21 -999.99   -7.21    0.00000     0.00  LINEAR    4.40736E+01    74.35    0.00000E+00     0.00
   10.00     0.00      10.80 -999.99   10.80    0.00000     0.00  LINEAR    3.50545E+02   130.76    0.00000E+00     0.00
   15.00     0.00       5.14 -999.99    5.14    0.00000     0.00  LINEAR    1.82746E+02    80.92    0.00000E+00     0.00
   20.00     0.00       3.46 -999.99    3.46    0.00000     0.00  LINEAR    1.50584E+02    10.17    0.00000E+00     0.00
   25.00     0.00       9.55 -999.99    9.55    0.00000     0.00  LINEAR    3.03402E+02   165.08    0.00000E+00     0.00
   30.00     0.00       7.06 -999.99    7.06    0.00000     0.00  LINEAR    2.27886E+02   -75.91    0.00000E+00     0.00
   35.00     0.00      11.16 -999.99   11.16    0.00000     0.00  LINEAR    3.65404E+02   -48.18    0.00000E+00     0.00
   40.00     0.00     -21.66 -999.99  -21.66    0.00000     0.00  LINEAR    8.34599E+00   -38.52    0.00000E+00     0.00
   45.00     0.00      -2.23 -999.99   -2.23    0.00000     0.00  LINEAR    7.82183E+01    13.38    0.00000E+00     0.00
   50.00     0.00     -18.93 -999.99  -18.93    0.00000     0.00  LINEAR    1.14313E+01    70.53    0.00000E+00     0.00
   55.00     0.00      -3.23 -999.99   -3.23    0.00000     0.00  LINEAR    6.96671E+01    -7.72    0.00000E+00     0.00
   60.00     0.00       0.86 -999.99    0.86    0.00000     0.00  LINEAR    1.11606E+02    27.81    0.00000E+00     0.00
   65.00     0.00       1.53 -999.99    1.53    0.00000     0.00  LINEAR    1.20524E+02   122.57    0.00000E+00     0.00
   70.00     0.00      -3.09 -999.99   -3.09    0.00000     0.00  LINEAR    7.08408E+01   -75.19    0.00000E+00     0.00
   75.00     0.00       3.74 -999.99    3.74    0.00000     0.00  LINEAR    1.55443E+02   -56.48    0.00000E+00     0.00
   80.00     0.00       1.76 -999.99    1.76    0.00000     0.00  LINEAR    1.23728E+02   147.43    0.00000E+00     0.00
   85.00     0.00       9.30 -999.99    9.30    0.00000     0.00  LINEAR    2.94755E+02   142.90    0.00000E+00     0.00
   90.00     0.00       1.74 -999.99    1.74    0.00000     0.00  LINEAR    1.23451E+02   169.52    0.00000E+00     0.00
    0.00     5.00    -999.99 -999.99 -999.99    0.00000     0.00            0.00000E+00     0.00    0.00000E+00     0.00
    5.00     5.00      -7.24 -999.99   -7.24    0.00000     0.00  LINEAR    4.39110E+01    73.26    0.00000E+00     0.00
   10.00     5.00      10.66 -999.99   10.66    0.00000     0.00  LINEAR    3.44933E+02   130.52    0.00000E+00     0.00
   15.00     5.00       5.10 -999.99    5.10    0.00000     0.00  LINEAR    1.81913E+02    84.09    0.00000E+00     0.00
   20.00     5.00       2.16 -999.99    2.16    0.00000     0.00  LINEAR    1.29545E+02     9.07    0.00000E+00     0.00
   25.00     5.00       8.75 -999.99    8.75    0.00000     0.00  LINEAR    2.76851E+02   167.01    0.00000E+00     0.00
   30.00     5.00       5.36 -999.99    5.36    0.00000     0.00  LINEAR    1.87288E+02   -79.67    0.00000E+00     0.00
   35.00     5.00       9.37 -999.99    9.37    0.00000     0.00  LINEAR    2.97111E+02   -48.93    0.00000E+00     0.00
   40.00     5.00     -21.88 -999.99  -21.88    0.00000     0.00  LINEAR    8.13702E+00   -32.07    0.00000E+00     0.00
   45.00     5.00      -6.58 -999.99   -6.58    0.00000     0.00  LINEAR    4.73851E+01    17.86    0.00000E+00     0.00
   50.00     5.00     -25.17 -999.99  -25.17    0.00000     0.00  LINEAR    5.57451E+00   112.66    0.00000E+00     0.00
   55.00     5.00      -6.66 -999.99   -6.66    0.00000     0.00  LINEAR    4.69748E+01    -3.38    0.00000E+00     0.00
   60.00     5.00      -2.91 -999.99   -2.91    0.00000     0.00  LINEAR    7.23344E+01    26.07    0.00000E+00     0.00
   65.00     5.00      -4.06 -999.99   -4.06    0.00000     0.00  LINEAR    6.33428E+01   118.88    0.00000E+00     0.00
   70.00     5.00      -8.28 -999.99   -8.28    0.00000     0.00  LINEAR    3.89400E+01   -79.62    0.00000E+00     0.00
   75.00     5.00      -2.24 -999.99   -2.24    0.00000     0.00  LINEAR    7.81405E+01   -60.25    0.00000E+00     0.00
   80.00     5.00      -4.01 -999.99   -4.01    0.00000     0.00  LINEAR    6.37173E+01   142.07    0.00000E+00     0.00
   85.00     5.00       3.34 -999.99    3.34    0.00000     0.00  LINEAR    1.48452E+02   138.57    0.00000E+00     0.00
   90.00     5.00      -4.13 -999.99   -4.13    0.00000     0.00  LINEAR    6.27895E+01   165.90    0.00000E+00     0.00
    0.00    10.00    -999.99 -999.99 -999.99    0.00000     0.00            0.00000E+00     0.00    0.00000E+00     0.00
    5.00    10.00      -7.45 -999.99   -7.45    0.00000     0.00  LINEAR    4.28896E+01    70.24    0.00000E+00     0.00
   10.00    10.00      10.17 -999.99   10.17    0.00000     0.00  LINEAR    3.26093E+02   130.25    0.00000E+00     0.00
   15.00    10.00       4.63 -999.99    4.63    0.00000     0.00  LINEAR    1.72292E+02    89.87    0.00000E+00     0.00
   20.00    10.00      -0.47 -999.99   -0.47    0.00000     0.00  LINEAR    9.57047E+01     8.65    0.00000E+00     0.00
   25.00    10.00       5.71 -999.99    5.71    0.00000     0.00  LINEAR    1.95139E+02   168.12    0.00000E+00     0.00
   30.00    10.00      -0.71 -999.99   -0.71    0.00000     0.00  LINEAR    9.30867E+01   -89.44    0.00000E+00     0.00
   35.00    10.00       2.04 -999.99    2.04    0.00000     0.00  LINEAR    1.27826E+02   -50.35    0.00000E+00     0.00
   40.00    10.00     -21.30 -999.99  -21.30    0.00000     0.00  LINEAR    8.70585E+00   -16.36    0.00000E+00     0.00
   45.00    10.00     -27.78 -999.99  -27.78    0.00000     0.00  LINEAR    4.12778E+00   133.13    0.00000E+00     0.00
   50.00    10.00     -18.69 -999.99  -18.69    0.00000     0.00  LINEAR    1.17576E+01   173.09    0.00000E+00     0.00
   55.00    10.00     -28.04 -999.99  -28.04    0.00000     0.00  LINEAR    4.00528E+00     3.03    0.00000E+00     0.00
   60.00    10.00     -13.43 -999.99  -13.43    0.00000     0.00  LINEAR    2.15384E+01  -173.24    0.00000E+00     0.00
   65.00    10.00     -17.64 -999.99  -17.64    0.00000     0.00  LINEAR    1.32632E+01  -101.96    0.00000E+00     0.00
   70.00    10.00     -22.64 -999.99  -22.64    0.00000     0.00  LINEAR    7.46242E+00   114.87    0.00000E+00     0.00
   75.00    10.00      -8.98 -999.99   -8.98    0.00000     0.00  LINEAR    3.59276E+01   132.90    0.00000E+00     0.00
   80.00    10.00     -10.61 -999.99  -10.61    0.00000     0.00  LINEAR    2.97863E+01   -15.30    0.00000E+00     0.00
   85.00    10.00      -1.48 -999.99   -1.48    0.00000     0.00  LINEAR    8.52830E+01   -24.29    0.00000E+00     0.00
   90.00    10.00      -9.54 -999.99   -9.54    0.00000     0.00  LINEAR    3.36937E+01     0.34    0.00000E+00     0.00
    0.00    15.00    -999.99 -999.99 -999.99    0.00000     0.00            0.00000E+00     0.00    0.00000E+00     0.00
    5.00    15.00      -7.77 -999.99   -7.77    0.00000     0.00  LINEAR    4.13035E+01    65.25    0.00000E+00     0.00
   10.00    15.00       9.30 -999.99    9.30    0.00000     0.00  LINEAR    2.95039E+02   129.89    0.00000E+00     0.00
   15.00    15.00       3.65 -999.99    3.65    0.00000     0.00  LINEAR    1.53788E+02    96.84    0.00000E+00     0.00
   20.00    15.00      -6.43 -999.99   -6.43    0.00000     0.00  LINEAR    4.82365E+01    12.77    0.00000E+00     0.00
   25.00    15.00      -0.56 -999.99   -0.56    0.00000     0.00  LINEAR    9.47314E+01   169.84    0.00000E+00     0.00
   30.00    15.00     -18.50 -999.99  -18.50    0.00000     0.00  LINEAR    1.20172E+01   -69.40    0.00000E+00     0.00
   35.00    15.00      -9.32 -999.99   -9.32    0.00000     0.00  LINEAR    3.45584E+01   133.59    0.00000E+00     0.00
   40.00    15.00     -19.76 -999.99  -19.76    0.00000     0.00  LINEAR    1.03862E+01    -4.79    0.00000E+00     0.00
   45.00    15.00     -12.73 -999.99  -12.73    0.00000     0.00  LINEAR    2.33321E+01  -138.86    0.00000E+00     0.00
   50.00    15.00     -14.09 -999.99  -14.09    0.00000     0.00  LINEAR    1.99643E+01   173.20    0.00000E+00     0.00
   55.00    15.00     -23.24 -999.99  -23.24    0.00000     0.00  LINEAR    6.95982E+00  -142.14    0.00000E+00     0.00
   60.00    15.00      -6.06 -999.99   -6.06    0.00000     0.00  LINEAR    5.03333E+01  -165.05    0.00000E+00     0.00
   65.00    15.00     -13.11 -999.99  -13.11    0.00000     0.00  LINEAR    2.23466E+01  -136.43    0.00000E+00     0.00
   70.00    15.00     -25.83 -999.99  -25.83    0.00000     0.00  LINEAR    5.16677E+00    70.02    0.00000E+00     0.00
   75.00    15.00     -16.32 -999.99  -16.32    0.00000     0.00  LINEAR    1.54443E+01   122.06    0.00000E+00     0.00
   80.00    15.00     -22.06 -999.99  -22.06    0.00000     0.00  LINEAR    7.97221E+00    -7.02    0.00000E+00     0.00
   85.00    15.00     -13.49 -999.99  -13.49    0.00000     0.00  LINEAR    2.13820E+01   -21.30    0.00000E+00     0.00
   90.00    15.00     -25.04 -999.99  -25.04    0.00000     0.00  LINEAR    5.65714E+00     4.24    0.00000E+00     0.00
    0.00    20.00    -999.99 -999.99 -999.99    0.00000     0.00            0.00000E+00     0.00    0.00000E+00     0.00
    5.00    20.00      -8.14 -999.99   -8.14    0.00000     0.00  LINEAR    3.95895E+01    58.27    0.00000E+00     0.00
   10.00    20.00       8.00 -999.99    8.00    0.00000     0.00  LINEAR    2.53769E+02   129.36    0.00000E+00     0.00
   15.00    20.00       1.74 -999.99    1.74    0.00000     0.00  LINEAR    1.23515E+02   102.92    0.00000E+00     0.00
   20.00    20.00     -18.11 -999.99  -18.11    0.00000     0.00  LINEAR    1.25658E+01   140.50    0.00000E+00     0.00
   25.00    20.00     -12.39 -999.99  -12.39    0.00000     0.00  LINEAR    2.42709E+01   176.37    0.00000E+00     0.00
   30.00    20.00      -5.52 -999.99   -5.52    0.00000     0.00  LINEAR    5.35078E+01    21.87    0.00000E+00     0.00
   35.00    20.00      -1.17 -999.99   -1.17    0.00000     0.00  LINEAR    8.83708E+01   126.19    0.00000E+00     0.00
   40.00    20.00     -18.46 -999.99  -18.46    0.00000     0.00  LINEAR    1.20614E+01    -4.93    0.00000E+00     0.00
   45.00    20.00     -12.90 -999.99  -12.90    0.00000     0.00  LINEAR    2.28822E+01   -70.03    0.00000E+00     0.00
   50.00    20.00     -33.44 -999.99  -33.44    0.00000     0.00  LINEAR    2.15012E+00   125.13    0.00000E+00     0.00
   55.00    20.00     -18.84 -999.99  -18.84    0.00000     0.00  LINEAR    1.15511E+01   -79.17    0.00000E+00     0.00
   60.00    20.00      -6.55 -999.99   -6.55    0.00000     0.00  LINEAR    4.75262E+01   -36.32    0.00000E+00     0.00
   65.00    20.00     -10.26 -999.99  -10.26    0.00000     0.00  LINEAR    3.10304E+01     6.84    0.00000E+00     0.00
   70.00    20.00     -18.18 -999.99  -18.18    0.00000     0.00  LINEAR    1.24681E+01  -148.30    0.00000E+00     0.00
   75.00    20.00      -6.40 -999.99   -6.40    0.00000     0.00  LINEAR    4.83902E+01   -69.23    0.00000E+00     0.00
   80.00    20.00      -4.77 -999.99   -4.77    0.00000     0.00  LINEAR    5.83400E+01   136.92    0.00000E+00     0.00
   85.00    20.00       5.37 -999.99    5.37    0.00000     0.00  LINEAR    1.87635E+02   140.15    0.00000E+00     0.00
   90.00    20.00      -1.69 -999.99   -1.69    0.00000     0.00  LINEAR    8.32432E+01   167.33    0.00000E+00     0.00
    0.00    25.00    -999.99 -999.99 -999.99    0.00000     0.00            0.00000E+00     0.00    0.00000E+00     0.00
    5.00    25.00      -8.44 -999.99   -8.44    0.00000     0.00  LINEAR    3.82368E+01    49.56    0.00000E+00     0.00
   10.00    25.00       6.16 -999.99    6.16    0.00000     0.00  LINEAR    2.05395E+02   128.53    0.00000E+00     0.00
   15.00    25.00      -2.29 -999.99   -2.29    0.00000     0.00  LINEAR    7.76575E+01   104.47    0.00000E+00     0.00
   20.00    25.00      -4.71 -999.99   -4.71    0.00000     0.00  LINEAR    5.87908E+01   179.47    0.00000E+00     0.00
   25.00    25.00     -17.97 -999.99  -17.97    0.00000     0.00  LINEAR    1.27692E+01   165.84    0.00000E+00     0.00
   30.00    25.00      -1.79 -999.99   -1.79    0.00000     0.00  LINEAR    8.22714E+01    11.39    0.00000E+00     0.00
   35.00    25.00      -9.30 -999.99   -9.30    0.00000     0.00  LINEAR    3.46591E+01   105.96    0.00000E+00     0.00
   40.00    25.00     -18.12 -999.99  -18.12    0.00000     0.00  LINEAR    1.25529E+01   -12.15    0.00000E+00     0.00
   45.00    25.00     -13.15 -999.99  -13.15    0.00000     0.00  LINEAR    2.22408E+01    83.28    0.00000E+00     0.00
   50.00    25.00     -10.14 -999.99  -10.14    0.00000     0.00  LINEAR    3.14495E+01    14.07    0.00000E+00     0.00
   55.00    25.00      -9.86 -999.99   -9.86    0.00000     0.00  LINEAR    3.24685E+01  -159.67    0.00000E+00     0.00
   60.00    25.00      -4.01 -999.99   -4.01    0.00000     0.00  LINEAR    6.36814E+01   -30.09    0.00000E+00     0.00
   65.00    25.00      -1.01 -999.99   -1.01    0.00000     0.00  LINEAR    8.99830E+01     0.81    0.00000E+00     0.00
   70.00    25.00      -7.37 -999.99   -7.37    0.00000     0.00  LINEAR    4.32812E+01   156.68    0.00000E+00     0.00
   75.00    25.00      -8.53 -999.99   -8.53    0.00000     0.00  LINEAR    3.78629E+01  -139.98    0.00000E+00     0.00
   80.00    25.00      -9.43 -999.99   -9.43    0.00000     0.00  LINEAR    3.41369E+01    83.19    0.00000E+00     0.00
   85.00    25.00       1.51 -999.99    1.51    0.00000     0.00  LINEAR    1.20225E+02   114.16    0.00000E+00     0.00
   90.00    25.00      -5.82 -999.99   -5.82    0.00000     0.00  LINEAR    5.17040E+01   144.21    0.00000E+00     0.00
    0.00    30.00    -999.99 -999.99 -999.99    0.00000     0.00            0.00000E+00     0.00    0.00000E+00     0.00
    5.00    30.00      -8.58 -999.99   -8.58    0.00000     0.00  LINEAR    3.76387E+01    39.76    0.00000E+00     0.00
   10.00    30.00       3.66 -999.99    3.66    0.00000     0.00  LINEAR    1.54056E+02   127.20    0.00000E+00     0.00
   15.00    30.00     -13.21 -999.99  -13.21    0.00000     0.00  LINEAR    2.20788E+01    66.17    0.00000E+00     0.00
   20.00    30.00      -2.12 -999.99   -2.12    0.00000     0.00  LINEAR    7.91549E+01  -166.41    0.00000E+00     0.00
   25.00    30.00      -7.79 -999.99   -7.79    0.00000     0.00  LINEAR    4.12138E+01   156.55    0.00000E+00     0.00
   30.00    30.00      -6.80 -999.99   -6.80    0.00000     0.00  LINEAR    4.62060E+01    28.96    0.00000E+00     0.00
   35.00    30.00     -12.60 -999.99  -12.60    0.00000     0.00  LINEAR    2.36990E+01   -53.77    0.00000E+00     0.00
   40.00    30.00     -19.47 -999.99  -19.47    0.00000     0.00  LINEAR    1.07479E+01   -16.95    0.00000E+00     0.00
   45.00    30.00       2.72 -999.99    2.72    0.00000     0.00  LINEAR    1.38189E+02   125.21    0.00000E+00     0.00
   50.00    30.00      -7.74 -999.99   -7.74    0.00000     0.00  LINEAR    4.14374E+01    74.28    0.00000E+00     0.00
   55.00    30.00      -4.40 -999.99   -4.40    0.00000     0.00  LINEAR    6.08797E+01  -161.60    0.00000E+00     0.00
   60.00    30.00      -6.61 -999.99   -6.61    0.00000     0.00  LINEAR    4.72167E+01  -164.46    0.00000E+00     0.00
   65.00    30.00      -8.81 -999.99   -8.81    0.00000     0.00  LINEAR    3.66756E+01     5.17    0.00000E+00     0.00
   70.00    30.00      -8.95 -999.99   -8.95    0.00000     0.00  LINEAR    3.60782E+01   143.53    0.00000E+00     0.00
   75.00    30.00      -9.08 -999.99   -9.08    0.00000     0.00  LINEAR    3.55232E+01   169.68    0.00000E+00     0.00
   80.00    30.00     -11.14 -999.99  -11.14    0.00000     0.00  LINEAR    2.80215E+01     4.46    0.00000E+00     0.00
   85.00    30.00      -7.19 -999.99   -7.19    0.00000     0.00  LINEAR    4.41636E+01    20.32    0.00000E+00     0.00
   90.00    30.00     -15.77 -999.99  -15.77    0.00000     0.00  LINEAR    1.64492E+01    44.68    0.00000E+00     0.00
    0.00    35.00    -999.99 -999.99 -999.99    0.00000     0.00            0.00000E+00     0.00    0.00000E+00     0.00
    5.00    35.00      -8.51 -999.99   -8.51    0.00000     0.00  LINEAR    3.79374E+01    29.84    0.00000E+00     0.00
   10.00    35.00       0.29 -999.99    0.29    0.00000     0.00  LINEAR    1.04528E+02   125.09    0.00000E+00     0.00
   15.00    35.00      -3.99 -999.99   -3.99    0.00000     0.00  LINEAR    6.38265E+01   -35.92    0.00000E+00     0.00
   20.00    35.00      -3.05 -999.99   -3.05    0.00000     0.00  LINEAR    7.11135E+01  -135.83    0.00000E+00     0.00
   25.00    35.00      -6.72 -999.99   -6.72    0.00000     0.00  LINEAR    4.66375E+01   150.36    0.00000E+00     0.00
   30.00    35.00      -4.30 -999.99   -4.30    0.00000     0.00  LINEAR    6.16388E+01   126.88    0.00000E+00     0.00
   35.00    35.00      -5.95 -999.99   -5.95    0.00000     0.00  LINEAR    5.09267E+01  -160.37    0.00000E+00     0.00
   40.00    35.00     -24.04 -999.99  -24.04    0.00000     0.00  LINEAR    6.34625E+00   -10.46    0.00000E+00     0.00
   45.00    35.00       6.71 -999.99    6.71    0.00000     0.00  LINEAR    2.18757E+02   130.90    0.00000E+00     0.00
   50.00    35.00      -1.75 -999.99   -1.75    0.00000     0.00  LINEAR    8.26553E+01   121.84    0.00000E+00     0.00
   55.00    35.00      -7.88 -999.99   -7.88    0.00000     0.00  LINEAR    4.08066E+01  -115.60    0.00000E+00     0.00
   60.00    35.00      -9.95 -999.99   -9.95    0.00000     0.00  LINEAR    3.21436E+01  -149.68    0.00000E+00     0.00
   65.00    35.00     -18.63 -999.99  -18.63    0.00000     0.00  LINEAR    1.18300E+01    -0.03    0.00000E+00     0.00
   70.00    35.00     -22.10 -999.99  -22.10    0.00000     0.00  LINEAR    7.93348E+00   170.92    0.00000E+00     0.00
   75.00    35.00     -28.88 -999.99  -28.88    0.00000     0.00  LINEAR    3.63605E+00  -172.13    0.00000E+00     0.00
   80.00    35.00     -29.71 -999.99  -29.71    0.00000     0.00  LINEAR    3.30352E+00   174.14    0.00000E+00     0.00
   85.00    35.00     -13.40 -999.99  -13.40    0.00000     0.00  LINEAR    2.16122E+01  -174.92    0.00000E+00     0.00
   90.00    35.00     -20.30 -999.99  -20.30    0.00000     0.00  LINEAR    9.75967E+00  -146.85    0.00000E+00     0.00
    0.00    40.00    -999.99 -999.99 -999.99    0.00000     0.00            0.00000E+00     0.00    0.00000E+00     0.00
    5.00    40.00      -8.28 -999.99   -8.28    0.00000     0.00  LINEAR    3.89719E+01    20.70    0.00000E+00     0.00
   10.00    40.00      -4.32 -999.99   -4.32    0.00000     0.00  LINEAR    6.14731E+01   121.81    0.00000E+00     0.00
   15.00    40.00       2.16 -999.99    2.16    0.00000     0.00  LINEAR    1.29623E+02   -42.45    0.00000E+00     0.00
   20.00    40.00      -2.14 -999.99   -2.14    0.00000     0.00  LINEAR    7.90079E+01   -86.46    0.00000E+00     0.00
   25.00    40.00     -12.20 -999.99  -12.20    0.00000     0.00  LINEAR    2.47995E+01    37.64    0.00000E+00     0.00
   30.00    40.00      -2.99 -999.99   -2.99    0.00000     0.00  LINEAR    7.16244E+01   122.58    0.00000E+00     0.00
   35.00    40.00       2.39 -999.99    2.39    0.00000     0.00  LINEAR    1.33057E+02   169.39    0.00000E+00     0.00
   40.00    40.00     -34.61 -999.99  -34.61    0.00000     0.00  LINEAR    1.87912E+00    26.70    0.00000E+00     0.00
   45.00    40.00       3.06 -999.99    3.06    0.00000     0.00  LINEAR    1.43727E+02   127.62    0.00000E+00     0.00
   50.00    40.00      -5.19 -999.99   -5.19    0.00000     0.00  LINEAR    5.55940E+01   129.88    0.00000E+00     0.00
   55.00    40.00     -16.25 -999.99  -16.25    0.00000     0.00  LINEAR    1.55634E+01  -111.46    0.00000E+00     0.00
   60.00    40.00     -12.98 -999.99  -12.98    0.00000     0.00  LINEAR    2.26920E+01    92.50    0.00000E+00     0.00
   65.00    40.00     -10.44 -999.99  -10.44    0.00000     0.00  LINEAR    3.03990E+01    29.89    0.00000E+00     0.00
   70.00    40.00     -17.96 -999.99  -17.96    0.00000     0.00  LINEAR    1.27863E+01   176.26    0.00000E+00     0.00
   75.00    40.00     -15.85 -999.99  -15.85    0.00000     0.00  LINEAR    1.63039E+01   168.52    0.00000E+00     0.00
   80.00    40.00     -20.87 -999.99  -20.87    0.00000     0.00  LINEAR    9.13918E+00    -0.75    0.00000E+00     0.00
   85.00    40.00     -15.99 -999.99  -15.99    0.00000     0.00  LINEAR    1.60446E+01   -29.20    0.00000E+00     0.00
   90.00    40.00     -23.51 -999.99  -23.51    0.00000     0.00  LINEAR    6.74512E+00   -20.29    0.00000E+00     0.00
    0.00    45.00    -999.99 -999.99 -999.99    0.00000     0.00            0.00000E+00     0.00    0.00000E+00     0.00
    5.00    45.00      -7.97 -999.99   -7.97    0.00000     0.00  LINEAR    4.03761E+01    12.89    0.00000E+00     0.00
   10.00    45.00     -11.00 -999.99  -11.00    0.00000     0.00  LINEAR    2.84718E+01   117.03    0.00000E+00     0.00
   15.00    45.00       4.66 -999.99    4.66    0.00000     0.00  LINEAR    1.72774E+02   -43.84    0.00000E+00     0.00
   20.00    45.00      -0.45 -999.99   -0.45    0.00000     0.00  LINEAR    9.59287E+01   -58.95    0.00000E+00     0.00
   25.00    45.00       0.18 -999.99    0.18    0.00000     0.00  LINEAR    1.03219E+02    11.45    0.00000E+00     0.00
   30.00    45.00      -0.94 -999.99   -0.94    0.00000     0.00  LINEAR    9.07253E+01    23.40    0.00000E+00     0.00
   35.00    45.00       1.64 -999.99    1.64    0.00000     0.00  LINEAR    1.22007E+02   161.21    0.00000E+00     0.00
   40.00    45.00     -38.06 -999.99  -38.06    0.00000     0.00  LINEAR    1.26387E+00   162.18    0.00000E+00     0.00
   45.00    45.00     -10.92 -999.99  -10.92    0.00000     0.00  LINEAR    2.87565E+01   101.21    0.00000E+00     0.00
   50.00    45.00     -17.85 -999.99  -17.85    0.00000     0.00  LINEAR    1.29417E+01   -44.01    0.00000E+00     0.00
   55.00    45.00      -5.40 -999.99   -5.40    0.00000     0.00  LINEAR    5.42563E+01   146.42    0.00000E+00     0.00
   60.00    45.00       1.98 -999.99    1.98    0.00000     0.00  LINEAR    1.26907E+02   136.61    0.00000E+00     0.00
   65.00    45.00      -6.81 -999.99   -6.81    0.00000     0.00  LINEAR    4.61210E+01   128.61    0.00000E+00     0.00
   70.00    45.00     -29.16 -999.99  -29.16    0.00000     0.00  LINEAR    3.52063E+00   -26.39    0.00000E+00     0.00
   75.00    45.00     -18.31 -999.99  -18.31    0.00000     0.00  LINEAR    1.22815E+01     3.20    0.00000E+00     0.00
   80.00    45.00     -13.46 -999.99  -13.46    0.00000     0.00  LINEAR    2.14717E+01  -162.91    0.00000E+00     0.00
   85.00    45.00      -4.38 -999.99   -4.38    0.00000     0.00  LINEAR    6.10247E+01  -159.56    0.00000E+00     0.00
   90.00    45.00     -11.02 -999.99  -11.02    0.00000     0.00  LINEAR    2.84115E+01  -137.63    0.00000E+00     0.00
    0.00    50.00    -999.99 -999.99 -999.99    0.00000     0.00            0.00000E+00     0.00    0.00000E+00     0.00
    5.00    50.00      -7.68 -999.99   -7.68    0.00000     0.00  LINEAR    4.17426E+01     6.54    0.00000E+00     0.00
   10.00    50.00     -23.11 -999.99  -23.11    0.00000     0.00  LINEAR    7.06725E+00   116.51    0.00000E+00     0.00
   15.00    50.00       5.02 -999.99    5.02    0.00000     0.00  LINEAR    1.80073E+02   -45.23    0.00000E+00     0.00
   20.00    50.00      -5.10 -999.99   -5.10    0.00000     0.00  LINEAR    5.61630E+01   -44.81    0.00000E+00     0.00
   25.00    50.00       2.34 -999.99    2.34    0.00000     0.00  LINEAR    1.32395E+02    43.18    0.00000E+00     0.00
   30.00    50.00       6.42 -999.99    6.42    0.00000     0.00  LINEAR    2.11744E+02     7.52    0.00000E+00     0.00
   35.00    50.00     -14.35 -999.99  -14.35    0.00000     0.00  LINEAR    1.93742E+01   125.71    0.00000E+00     0.00
   40.00    50.00     -38.51 -999.99  -38.51    0.00000     0.00  LINEAR    1.19960E+00  -141.54    0.00000E+00     0.00
   45.00    50.00     -23.77 -999.99  -23.77    0.00000     0.00  LINEAR    6.54633E+00  -178.43    0.00000E+00     0.00
   50.00    50.00     -17.22 -999.99  -17.22    0.00000     0.00  LINEAR    1.39120E+01  -100.57    0.00000E+00     0.00
   55.00    50.00     -11.05 -999.99  -11.05    0.00000     0.00  LINEAR    2.83276E+01   131.27    0.00000E+00     0.00
   60.00    50.00     -15.58 -999.99  -15.58    0.00000     0.00  LINEAR    1.68028E+01   150.64    0.00000E+00     0.00
[...]
   40.00   315.00     -37.66 -999.99  -37.66    0.00000     0.00  LINEAR    1.32324E+00   148.53    0.00000E+00     0.00
   45.00   315.00     -12.33 -999.99  -12.33    0.00000     0.00  LINEAR    2.44358E+01   111.89    0.00000E+00     0.00
   50.00   315.00     -16.24 -999.99  -16.24    0.00000     0.00  LINEAR    1.55864E+01   -57.88    0.00000E+00     0.00
   55.00   315.00      -5.28 -999.99   -5.28    0.00000     0.00  LINEAR    5.50125E+01   144.20    0.00000E+00     0.00
   60.00   315.00       1.73 -999.99    1.73    0.00000     0.00  LINEAR    1.23295E+02   137.87    0.00000E+00     0.00
   65.00   315.00      -8.68 -999.99   -8.68    0.00000     0.00  LINEAR    3.71905E+01   129.64    0.00000E+00     0.00
   70.00   315.00     -27.30 -999.99  -27.30    0.00000     0.00  LINEAR    4.36057E+00    98.56    0.00000E+00     0.00
   75.00   315.00     -22.95 -999.99  -22.95    0.00000     0.00  LINEAR    7.19468E+00    69.74    0.00000E+00     0.00
   80.00   315.00     -18.95 -999.99  -18.95    0.00000     0.00  LINEAR    1.14035E+01  -141.42    0.00000E+00     0.00
   85.00   315.00      -9.22 -999.99   -9.22    0.00000     0.00  LINEAR    3.49730E+01  -146.08    0.00000E+00     0.00
   90.00   315.00     -15.48 -999.99  -15.48    0.00000     0.00  LINEAR    1.70042E+01  -128.80    0.00000E+00     0.00
    0.00   320.00    -999.99 -999.99 -999.99    0.00000     0.00            0.00000E+00     0.00    0.00000E+00     0.00
    5.00   320.00      -9.37 -999.99   -9.37    0.00000     0.00  LINEAR    3.43773E+01    15.23    0.00000E+00     0.00
   10.00   320.00      -4.94 -999.99   -4.94    0.00000     0.00  LINEAR    5.72418E+01   130.52    0.00000E+00     0.00
   15.00   320.00       2.83 -999.99    2.83    0.00000     0.00  LINEAR    1.39976E+02   -46.72    0.00000E+00     0.00
   20.00   320.00      -3.30 -999.99   -3.30    0.00000     0.00  LINEAR    6.91364E+01   -94.45    0.00000E+00     0.00
   25.00   320.00      -8.39 -999.99   -8.39    0.00000     0.00  LINEAR    3.84682E+01   171.01    0.00000E+00     0.00
   30.00   320.00      -1.27 -999.99   -1.27    0.00000     0.00  LINEAR    8.73458E+01   163.07    0.00000E+00     0.00
   35.00   320.00       2.72 -999.99    2.72    0.00000     0.00  LINEAR    1.38201E+02   173.27    0.00000E+00     0.00
   40.00   320.00     -34.53 -999.99  -34.53    0.00000     0.00  LINEAR    1.89683E+00    27.21    0.00000E+00     0.00
   45.00   320.00       2.86 -999.99    2.86    0.00000     0.00  LINEAR    1.40559E+02   129.57    0.00000E+00     0.00
   50.00   320.00      -6.28 -999.99   -6.28    0.00000     0.00  LINEAR    4.90471E+01   135.31    0.00000E+00     0.00
   55.00   320.00     -20.63 -999.99  -20.63    0.00000     0.00  LINEAR    9.40047E+00  -146.95    0.00000E+00     0.00
   60.00   320.00      -9.02 -999.99   -9.02    0.00000     0.00  LINEAR    3.57861E+01   111.39    0.00000E+00     0.00
   65.00   320.00     -11.58 -999.99  -11.58    0.00000     0.00  LINEAR    2.66513E+01    35.08    0.00000E+00     0.00
   70.00   320.00     -17.53 -999.99  -17.53    0.00000     0.00  LINEAR    1.34268E+01   175.59    0.00000E+00     0.00
   75.00   320.00     -13.78 -999.99  -13.78    0.00000     0.00  LINEAR    2.06741E+01   173.98    0.00000E+00     0.00
   80.00   320.00     -16.06 -999.99  -16.06    0.00000     0.00  LINEAR    1.59034E+01    14.87    0.00000E+00     0.00
   85.00   320.00     -10.36 -999.99  -10.36    0.00000     0.00  LINEAR    3.06494E+01    10.67    0.00000E+00     0.00
   90.00   320.00     -18.33 -999.99  -18.33    0.00000     0.00  LINEAR    1.22513E+01    30.06    0.00000E+00     0.00
    0.00   325.00    -999.99 -999.99 -999.99    0.00000     0.00            0.00000E+00     0.00    0.00000E+00     0.00
    5.00   325.00      -9.58 -999.99   -9.58    0.00000     0.00  LINEAR    3.35434E+01    26.17    0.00000E+00     0.00
   10.00   325.00      -0.13 -999.99   -0.13    0.00000     0.00  LINEAR    9.95777E+01   130.58    0.00000E+00     0.00
   15.00   325.00      -1.88 -999.99   -1.88    0.00000     0.00  LINEAR    8.13639E+01   -47.27    0.00000E+00     0.00
   20.00   325.00      -3.16 -999.99   -3.16    0.00000     0.00  LINEAR    7.02693E+01  -133.65    0.00000E+00     0.00
   25.00   325.00      -1.93 -999.99   -1.93    0.00000     0.00  LINEAR    8.09544E+01   175.40    0.00000E+00     0.00
   30.00   325.00      -2.69 -999.99   -2.69    0.00000     0.00  LINEAR    7.41422E+01   170.45    0.00000E+00     0.00
   35.00   325.00      -4.23 -999.99   -4.23    0.00000     0.00  LINEAR    6.21406E+01  -153.16    0.00000E+00     0.00
   40.00   325.00     -24.27 -999.99  -24.27    0.00000     0.00  LINEAR    6.18519E+00    -9.30    0.00000E+00     0.00
   45.00   325.00       6.68 -999.99    6.68    0.00000     0.00  LINEAR    2.17991E+02   131.08    0.00000E+00     0.00
   50.00   325.00      -2.37 -999.99   -2.37    0.00000     0.00  LINEAR    7.68952E+01   122.16    0.00000E+00     0.00
   55.00   325.00      -8.16 -999.99   -8.16    0.00000     0.00  LINEAR    3.94969E+01  -129.84    0.00000E+00     0.00
   60.00   325.00      -4.34 -999.99   -4.34    0.00000     0.00  LINEAR    6.13007E+01  -162.65    0.00000E+00     0.00
   65.00   325.00     -17.11 -999.99  -17.11    0.00000     0.00  LINEAR    1.41044E+01  -117.10    0.00000E+00     0.00
   70.00   325.00     -31.59 -999.99  -31.59    0.00000     0.00  LINEAR    2.66027E+00    93.76    0.00000E+00     0.00
   75.00   325.00     -24.20 -999.99  -24.20    0.00000     0.00  LINEAR    6.23253E+00    53.50    0.00000E+00     0.00
   80.00   325.00     -20.84 -999.99  -20.84    0.00000     0.00  LINEAR    9.17387E+00  -145.84    0.00000E+00     0.00
   85.00   325.00     -10.29 -999.99  -10.29    0.00000     0.00  LINEAR    3.09189E+01  -156.50    0.00000E+00     0.00
   90.00   325.00     -17.43 -999.99  -17.43    0.00000     0.00  LINEAR    1.35946E+01  -132.05    0.00000E+00     0.00
    0.00   330.00    -999.99 -999.99 -999.99    0.00000     0.00            0.00000E+00     0.00    0.00000E+00     0.00
    5.00   330.00      -9.56 -999.99   -9.56    0.00000     0.00  LINEAR    3.36407E+01    37.82    0.00000E+00     0.00
   10.00   330.00       3.34 -999.99    3.34    0.00000     0.00  LINEAR    1.48408E+02   131.06    0.00000E+00     0.00
   15.00   330.00     -14.47 -999.99  -14.47    0.00000     0.00  LINEAR    1.91052E+01   -25.08    0.00000E+00     0.00
   20.00   330.00      -4.59 -999.99   -4.59    0.00000     0.00  LINEAR    5.95689E+01  -156.66    0.00000E+00     0.00
   25.00   330.00      -6.17 -999.99   -6.17    0.00000     0.00  LINEAR    4.96892E+01   168.77    0.00000E+00     0.00
   30.00   330.00     -13.48 -999.99  -13.48    0.00000     0.00  LINEAR    2.14163E+01    -2.74    0.00000E+00     0.00
   35.00   330.00     -10.90 -999.99  -10.90    0.00000     0.00  LINEAR    2.88243E+01   -73.48    0.00000E+00     0.00
   40.00   330.00     -20.08 -999.99  -20.08    0.00000     0.00  LINEAR    1.00157E+01   -14.55    0.00000E+00     0.00
   45.00   330.00       3.26 -999.99    3.26    0.00000     0.00  LINEAR    1.47077E+02   123.90    0.00000E+00     0.00
   50.00   330.00      -7.54 -999.99   -7.54    0.00000     0.00  LINEAR    4.24364E+01    77.79    0.00000E+00     0.00
   55.00   330.00      -4.13 -999.99   -4.13    0.00000     0.00  LINEAR    6.28008E+01  -162.16    0.00000E+00     0.00
   60.00   330.00      -3.75 -999.99   -3.75    0.00000     0.00  LINEAR    6.56209E+01  -159.91    0.00000E+00     0.00
   65.00   330.00     -11.29 -999.99  -11.29    0.00000     0.00  LINEAR    2.75438E+01   -23.18    0.00000E+00     0.00
   70.00   330.00      -9.59 -999.99   -9.59    0.00000     0.00  LINEAR    3.35226E+01   132.90    0.00000E+00     0.00
   75.00   330.00     -10.09 -999.99  -10.09    0.00000     0.00  LINEAR    3.16481E+01   154.94    0.00000E+00     0.00
   80.00   330.00     -12.36 -999.99  -12.36    0.00000     0.00  LINEAR    2.43452E+01   -12.02    0.00000E+00     0.00
   85.00   330.00      -9.45 -999.99   -9.45    0.00000     0.00  LINEAR    3.40428E+01     0.59    0.00000E+00     0.00
   90.00   330.00     -18.35 -999.99  -18.35    0.00000     0.00  LINEAR    1.22268E+01    23.04    0.00000E+00     0.00
    0.00   335.00    -999.99 -999.99 -999.99    0.00000     0.00            0.00000E+00     0.00    0.00000E+00     0.00
    5.00   335.00      -9.26 -999.99   -9.26    0.00000     0.00  LINEAR    3.48199E+01    48.96    0.00000E+00     0.00
   10.00   335.00       5.90 -999.99    5.90    0.00000     0.00  LINEAR    1.99289E+02   131.37    0.00000E+00     0.00
   15.00   335.00      -7.09 -999.99   -7.09    0.00000     0.00  LINEAR    4.46745E+01    97.54    0.00000E+00     0.00
   20.00   335.00     -15.88 -999.99  -15.88    0.00000     0.00  LINEAR    1.62456E+01  -179.05    0.00000E+00     0.00
   25.00   335.00     -14.92 -999.99  -14.92    0.00000     0.00  LINEAR    1.81455E+01    71.72    0.00000E+00     0.00
   30.00   335.00      -2.25 -999.99   -2.25    0.00000     0.00  LINEAR    7.80175E+01     8.45    0.00000E+00     0.00
   35.00   335.00     -10.24 -999.99  -10.24    0.00000     0.00  LINEAR    3.10856E+01   114.30    0.00000E+00     0.00
   40.00   335.00     -18.75 -999.99  -18.75    0.00000     0.00  LINEAR    1.16760E+01    -9.54    0.00000E+00     0.00
   45.00   335.00      -9.05 -999.99   -9.05    0.00000     0.00  LINEAR    3.56367E+01    99.08    0.00000E+00     0.00
   50.00   335.00     -13.31 -999.99  -13.31    0.00000     0.00  LINEAR    2.18315E+01    25.57    0.00000E+00     0.00
   55.00   335.00     -13.80 -999.99  -13.80    0.00000     0.00  LINEAR    2.06392E+01  -163.56    0.00000E+00     0.00
   60.00   335.00      -3.08 -999.99   -3.08    0.00000     0.00  LINEAR    7.09270E+01   -14.73    0.00000E+00     0.00
   65.00   335.00      -0.76 -999.99   -0.76    0.00000     0.00  LINEAR    9.25961E+01     3.51    0.00000E+00     0.00
   70.00   335.00      -7.34 -999.99   -7.34    0.00000     0.00  LINEAR    4.34002E+01   156.92    0.00000E+00     0.00
   75.00   335.00      -8.71 -999.99   -8.71    0.00000     0.00  LINEAR    3.70937E+01  -140.20    0.00000E+00     0.00
   80.00   335.00      -9.72 -999.99   -9.72    0.00000     0.00  LINEAR    3.30117E+01    83.92    0.00000E+00     0.00
   85.00   335.00       1.36 -999.99    1.36    0.00000     0.00  LINEAR    1.18179E+02   115.36    0.00000E+00     0.00
   90.00   335.00      -5.95 -999.99   -5.95    0.00000     0.00  LINEAR    5.09501E+01   145.49    0.00000E+00     0.00
    0.00   340.00    -999.99 -999.99 -999.99    0.00000     0.00            0.00000E+00     0.00    0.00000E+00     0.00
    5.00   340.00      -8.76 -999.99   -8.76    0.00000     0.00  LINEAR    3.68648E+01    58.46    0.00000E+00     0.00
   10.00   340.00       7.79 -999.99    7.79    0.00000     0.00  LINEAR    2.47685E+02   131.46    0.00000E+00     0.00
   15.00   340.00      -0.88 -999.99   -0.88    0.00000     0.00  LINEAR    9.13201E+01    96.55    0.00000E+00     0.00
   20.00   340.00      -6.27 -999.99   -6.27    0.00000     0.00  LINEAR    4.91042E+01    18.22    0.00000E+00     0.00
   25.00   340.00      -8.52 -999.99   -8.52    0.00000     0.00  LINEAR    3.78974E+01    69.87    0.00000E+00     0.00
   30.00   340.00      -4.06 -999.99   -4.06    0.00000     0.00  LINEAR    6.33429E+01    27.56    0.00000E+00     0.00
   35.00   340.00      -1.14 -999.99   -1.14    0.00000     0.00  LINEAR    8.86381E+01   125.83    0.00000E+00     0.00
   40.00   340.00     -18.68 -999.99  -18.68    0.00000     0.00  LINEAR    1.17695E+01    -3.93    0.00000E+00     0.00
   45.00   340.00     -16.36 -999.99  -16.36    0.00000     0.00  LINEAR    1.53615E+01   -89.28    0.00000E+00     0.00
   50.00   340.00     -18.54 -999.99  -18.54    0.00000     0.00  LINEAR    1.19510E+01   179.40    0.00000E+00     0.00
   55.00   340.00     -16.74 -999.99  -16.74    0.00000     0.00  LINEAR    1.47164E+01    -1.57    0.00000E+00     0.00
   60.00   340.00      -4.87 -999.99   -4.87    0.00000     0.00  LINEAR    5.77270E+01    -1.58    0.00000E+00     0.00
   65.00   340.00      -8.18 -999.99   -8.18    0.00000     0.00  LINEAR    3.94183E+01    23.43    0.00000E+00     0.00
   70.00   340.00     -15.97 -999.99  -15.97    0.00000     0.00  LINEAR    1.60725E+01  -147.54    0.00000E+00     0.00
   75.00   340.00      -6.05 -999.99   -6.05    0.00000     0.00  LINEAR    5.03393E+01   -73.24    0.00000E+00     0.00
   80.00   340.00      -4.59 -999.99   -4.59    0.00000     0.00  LINEAR    5.95629E+01   134.06    0.00000E+00     0.00
   85.00   340.00       5.51 -999.99    5.51    0.00000     0.00  LINEAR    1.90549E+02   137.95    0.00000E+00     0.00
   90.00   340.00      -1.58 -999.99   -1.58    0.00000     0.00  LINEAR    8.42787E+01   165.35    0.00000E+00     0.00
    0.00   345.00    -999.99 -999.99 -999.99    0.00000     0.00            0.00000E+00     0.00    0.00000E+00     0.00
    5.00   345.00      -8.21 -999.99   -8.21    0.00000     0.00  LINEAR    3.92983E+01    65.74    0.00000E+00     0.00
   10.00   345.00       9.14 -999.99    9.14    0.00000     0.00  LINEAR    2.89614E+02   131.39    0.00000E+00     0.00
   15.00   345.00       2.03 -999.99    2.03    0.00000     0.00  LINEAR    1.27703E+02    90.20    0.00000E+00     0.00
   20.00   345.00       0.62 -999.99    0.62    0.00000     0.00  LINEAR    1.08569E+02    13.14    0.00000E+00     0.00
   25.00   345.00      -2.19 -999.99   -2.19    0.00000     0.00  LINEAR    7.85386E+01   129.93    0.00000E+00     0.00
   30.00   345.00     -16.05 -999.99  -16.05    0.00000     0.00  LINEAR    1.59302E+01    17.32    0.00000E+00     0.00
   35.00   345.00      -8.26 -999.99   -8.26    0.00000     0.00  LINEAR    3.90316E+01   121.58    0.00000E+00     0.00
   40.00   345.00     -19.40 -999.99  -19.40    0.00000     0.00  LINEAR    1.08306E+01    -6.28    0.00000E+00     0.00
   45.00   345.00     -13.36 -999.99  -13.36    0.00000     0.00  LINEAR    2.17200E+01  -128.53    0.00000E+00     0.00
   50.00   345.00     -14.22 -999.99  -14.22    0.00000     0.00  LINEAR    1.96535E+01   172.75    0.00000E+00     0.00
   55.00   345.00     -28.44 -999.99  -28.44    0.00000     0.00  LINEAR    3.82621E+00  -151.56    0.00000E+00     0.00
   60.00   345.00      -7.28 -999.99   -7.28    0.00000     0.00  LINEAR    4.37337E+01  -173.88    0.00000E+00     0.00
   65.00   345.00     -14.90 -999.99  -14.90    0.00000     0.00  LINEAR    1.81719E+01  -142.51    0.00000E+00     0.00
   70.00   345.00     -28.82 -999.99  -28.82    0.00000     0.00  LINEAR    3.66048E+00    88.81    0.00000E+00     0.00
   75.00   345.00     -16.83 -999.99  -16.83    0.00000     0.00  LINEAR    1.45607E+01   134.73    0.00000E+00     0.00
   80.00   345.00     -21.09 -999.99  -21.09    0.00000     0.00  LINEAR    8.91589E+00    15.81    0.00000E+00     0.00
   85.00   345.00     -13.52 -999.99  -13.52    0.00000     0.00  LINEAR    2.13208E+01     6.04    0.00000E+00     0.00
   90.00   345.00     -24.25 -999.99  -24.25    0.00000     0.00  LINEAR    6.19859E+00    44.67    0.00000E+00     0.00
    0.00   350.00    -999.99 -999.99 -999.99    0.00000     0.00            0.00000E+00     0.00    0.00000E+00     0.00
    5.00   350.00      -7.71 -999.99   -7.71    0.00000     0.00  LINEAR    4.15819E+01    70.72    0.00000E+00     0.00
   10.00   350.00      10.06 -999.99   10.06    0.00000     0.00  LINEAR    3.22001E+02   131.21    0.00000E+00     0.00
   15.00   350.00       3.72 -999.99    3.72    0.00000     0.00  LINEAR    1.55193E+02    84.38    0.00000E+00     0.00
   20.00   350.00       3.19 -999.99    3.19    0.00000     0.00  LINEAR    1.45843E+02    11.66    0.00000E+00     0.00
   25.00   350.00       4.72 -999.99    4.72    0.00000     0.00  LINEAR    1.74117E+02   152.92    0.00000E+00     0.00
   30.00   350.00      -2.22 -999.99   -2.22    0.00000     0.00  LINEAR    7.83157E+01   -81.43    0.00000E+00     0.00
   35.00   350.00       1.56 -999.99    1.56    0.00000     0.00  LINEAR    1.20899E+02   -44.85    0.00000E+00     0.00
   40.00   350.00     -20.51 -999.99  -20.51    0.00000     0.00  LINEAR    9.53602E+00   -18.07    0.00000E+00     0.00
   45.00   350.00     -17.63 -999.99  -17.63    0.00000     0.00  LINEAR    1.32762E+01     0.61    0.00000E+00     0.00
   50.00   350.00     -23.45 -999.99  -23.45    0.00000     0.00  LINEAR    6.79704E+00    96.25    0.00000E+00     0.00
   55.00   350.00     -19.68 -999.99  -19.68    0.00000     0.00  LINEAR    1.04844E+01  -109.41    0.00000E+00     0.00
   60.00   350.00      -9.84 -999.99   -9.84    0.00000     0.00  LINEAR    3.25740E+01  -151.81    0.00000E+00     0.00
   65.00   350.00     -15.23 -999.99  -15.23    0.00000     0.00  LINEAR    1.75129E+01  -104.47    0.00000E+00     0.00
   70.00   350.00     -21.93 -999.99  -21.93    0.00000     0.00  LINEAR    8.08883E+00   102.36    0.00000E+00     0.00
   75.00   350.00      -8.75 -999.99   -8.75    0.00000     0.00  LINEAR    3.68922E+01   128.81    0.00000E+00     0.00
   80.00   350.00     -10.42 -999.99  -10.42    0.00000     0.00  LINEAR    3.04505E+01   -19.82    0.00000E+00     0.00
   85.00   350.00      -1.17 -999.99   -1.17    0.00000     0.00  LINEAR    8.83337E+01   -28.03    0.00000E+00     0.00
   90.00   350.00      -9.24 -999.99   -9.24    0.00000     0.00  LINEAR    3.48881E+01    -3.40    0.00000E+00     0.00
    0.00   355.00    -999.99 -999.99 -999.99    0.00000     0.00            0.00000E+00     0.00    0.00000E+00     0.00
    5.00   355.00      -7.37 -999.99   -7.37    0.00000     0.00  LINEAR    4.32678E+01    73.53    0.00000E+00     0.00
   10.00   355.00      10.61 -999.99   10.61    0.00000     0.00  LINEAR    3.42730E+02   130.99    0.00000E+00     0.00
   15.00   355.00       4.71 -999.99    4.71    0.00000     0.00  LINEAR    1.73835E+02    81.02    0.00000E+00     0.00
   20.00   355.00       3.88 -999.99    3.88    0.00000     0.00  LINEAR    1.57906E+02    10.98    0.00000E+00     0.00
   25.00   355.00       8.33 -999.99    8.33    0.00000     0.00  LINEAR    2.63673E+02   161.18    0.00000E+00     0.00
   30.00   355.00       4.98 -999.99    4.98    0.00000     0.00  LINEAR    1.79231E+02   -77.05    0.00000E+00     0.00
   35.00   355.00       9.19 -999.99    9.19    0.00000     0.00  LINEAR    2.91314E+02   -47.24    0.00000E+00     0.00
   40.00   355.00     -21.27 -999.99  -21.27    0.00000     0.00  LINEAR    8.73374E+00   -32.21    0.00000E+00     0.00
   45.00   355.00      -4.31 -999.99   -4.31    0.00000     0.00  LINEAR    6.15149E+01    12.85    0.00000E+00     0.00
   50.00   355.00     -17.23 -999.99  -17.23    0.00000     0.00  LINEAR    1.39001E+01    52.85    0.00000E+00     0.00
   55.00   355.00      -7.69 -999.99   -7.69    0.00000     0.00  LINEAR    4.16897E+01   -19.52    0.00000E+00     0.00
   60.00   355.00      -4.62 -999.99   -4.62    0.00000     0.00  LINEAR    5.93506E+01    16.74    0.00000E+00     0.00
   65.00   355.00      -4.55 -999.99   -4.55    0.00000     0.00  LINEAR    5.98487E+01   123.26    0.00000E+00     0.00
   70.00   355.00      -8.67 -999.99   -8.67    0.00000     0.00  LINEAR    3.72607E+01   -75.28    0.00000E+00     0.00
   75.00   355.00      -2.64 -999.99   -2.64    0.00000     0.00  LINEAR    7.45442E+01   -56.42    0.00000E+00     0.00
   80.00   355.00      -4.56 -999.99   -4.56    0.00000     0.00  LINEAR    5.97745E+01   146.53    0.00000E+00     0.00
   85.00   355.00       2.57 -999.99    2.57    0.00000     0.00  LINEAR    1.35917E+02   143.28    0.00000E+00     0.00
   90.00   355.00      -4.83 -999.99   -4.83    0.00000     0.00  LINEAR    5.79869E+01   170.59    0.00000E+00     0.00






 ***** DATA CARD NO. 16   EN   0     0     0     0  0.00000E+00  0.00000E+00  0.00000E+00  0.00000E+00  0.00000E+00  0.00000E+00

 RUN TIME =     0.188
