1



                                 *********************************************

                                    NUMERICAL ELECTROMAGNETICS CODE (NEC-2D)

                                 *********************************************




                                     - - - - COMMENTS - - - -


                                                                                                     
                                                                                                     




                                 - - - STRUCTURE SPECIFICATION - - -

                                     COORDINATES MUST BE INPUT IN
                                     METERS OR BE SCALED TO METERS
                                     BEFORE STRUCTURE INPUT IS ENDED


  WIRE                                                                               NO. OF    FIRST  LAST     TAG
  NO.        X1         Y1         Z1          X2         Y2         Z2      RADIUS   SEG.     SEG.   SEG.     NO.
     1   -7.50000   -5.00000   -5.00000    -7.50000   -5.00000    5.00000    0.00100     20        1    20     101
     2   -2.50000   -5.00000   -5.00000    -2.50000   -5.00000    5.00000    0.00100     20       21    40     102
     3    2.50000   -5.00000   -5.00000     2.50000   -5.00000    5.00000    0.00100     20       41    60     103
     4    7.50000   -5.00000   -5.00000     7.50000   -5.00000    5.00000    0.00100     20       61    80     104
     5   -7.50000    0.00000   -5.00000    -7.50000    0.00000    5.00000    0.00100     20       81   100     201
     6   -2.50000    0.00000   -5.00000    -2.50000    0.00000    5.00000    0.00100     20      101   120     202
     7    2.50000    0.00000   -5.00000     2.50000    0.00000    5.00000    0.00100     20      121   140     203
     8    7.50000    0.00000   -5.00000     7.50000    0.00000    5.00000    0.00100     20      141   160     204
     9   -7.50000    5.00000   -5.00000    -7.50000    5.00000    5.00000    0.00100     20      161   180     301
    10   -2.50000    5.00000   -5.00000    -2.50000    5.00000    5.00000    0.00100     20      181   200     302
    11    2.50000    5.00000   -5.00000     2.50000    5.00000    5.00000    0.00100     20      201   220     303
    12    7.50000    5.00000   -5.00000     7.50000    5.00000    5.00000    0.00100     20      221   240     304

   TOTAL SEGMENTS USED=  240     NO. SEG. IN A SYMMETRIC CELL=  240     SYMMETRY FLAG=  0


         - MULTIPLE WIRE JUNCTIONS -
 JUNCTION    SEGMENTS  (- FOR END 1, + FOR END 2)
  NONE




                                 - - - - SEGMENTATION DATA - - - -

                                        COORDINATES IN METERS

                         I+ AND I- INDICATE THE SEGMENTS BEFORE AND AFTER I


  SEG.   COORDINATES OF SEG. CENTER     SEG.     ORIENTATION ANGLES    WIRE    CONNECTION DATA   TAG
  NO.       X         Y         Z       LENGTH     ALPHA     BETA      RADIUS    I-   I    I+    NO.
     1  -7.50000  -5.00000  -4.75000   0.50000   90.00000   0.00000   0.00100     0    1    2    101
     2  -7.50000  -5.00000  -4.25000   0.50000   90.00000   0.00000   0.00100     1    2    3    101
     3  -7.50000  -5.00000  -3.75000   0.50000   90.00000   0.00000   0.00100     2    3    4    101
     4  -7.50000  -5.00000  -3.25000   0.50000   90.00000   0.00000   0.00100     3    4    5    101
     5  -7.50000  -5.00000  -2.75000   0.50000   90.00000   0.00000   0.00100     4    5    6    101
     6  -7.50000  -5.00000  -2.25000   0.50000   90.00000   0.00000   0.00100     5    6    7    101
     7  -7.50000  -5.00000  -1.75000   0.50000   90.00000   0.00000   0.00100     6    7    8    101
     8  -7.50000  -5.00000  -1.25000   0.50000   90.00000   0.00000   0.00100     7    8    9    101
     9  -7.50000  -5.00000  -0.75000   0.50000   90.00000   0.00000   0.00100     8    9   10    101
    10  -7.50000  -5.00000  -0.25000   0.50000   90.00000   0.00000   0.00100     9   10   11    101
    11  -7.50000  -5.00000   0.25000   0.50000   90.00000   0.00000   0.00100    10   11   12    101
    12  -7.50000  -5.00000   0.75000   0.50000   90.00000   0.00000   0.00100    11   12   13    101
    13  -7.50000  -5.00000   1.25000   0.50000   90.00000   0.00000   0.00100    12   13   14    101
    14  -7.50000  -5.00000   1.75000   0.50000   90.00000   0.00000   0.00100    13   14   15    101
    15  -7.50000  -5.00000   2.25000   0.50000   90.00000   0.00000   0.00100    14   15   16    101
    16  -7.50000  -5.00000   2.75000   0.50000   90.00000   0.00000   0.00100    15   16   17    101
    17  -7.50000  -5.00000   3.25000   0.50000   90.00000   0.00000   0.00100    16   17   18    101
    18  -7.50000  -5.00000   3.75000   0.50000   90.00000   0.00000   0.00100    17   18   19    101
    19  -7.50000  -5.00000   4.25000   0.50000   90.00000   0.00000   0.00100    18   19   20    101
    20  -7.50000  -5.00000   4.75000   0.50000   90.00000   0.00000   0.00100    19   20    0    101
    21  -2.50000  -5.00000  -4.75000   0.50000   90.00000   0.00000   0.00100     0   21   22    102
    22  -2.50000  -5.00000  -4.25000   0.50000   90.00000   0.00000   0.00100    21   22   23    102
    23  -2.50000  -5.00000  -3.75000   0.50000   90.00000   0.00000   0.00100    22   23   24    102
    24  -2.50000  -5.00000  -3.25000   0.50000   90.00000   0.00000   0.00100    23   24   25    102
    25  -2.50000  -5.00000  -2.75000   0.50000   90.00000   0.00000   0.00100    24   25   26    102
    26  -2.50000  -5.00000  -2.25000   0.50000   90.00000   0.00000   0.00100    25   26   27    102
    27  -2.50000  -5.00000  -1.75000   0.50000   90.00000   0.00000   0.00100    26   27   28    102
    28  -2.50000  -5.00000  -1.25000   0.50000   90.00000   0.00000   0.00100    27   28   29    102
    29  -2.50000  -5.00000  -0.75000   0.50000   90.00000   0.00000   0.00100    28   29   30    102
    30  -2.50000  -5.00000  -0.25000   0.50000   90.00000   0.00000   0.00100    29   30   31    102
    31  -2.50000  -5.00000   0.25000   0.50000   90.00000   0.00000   0.00100    30   31   32    102
    32  -2.50000  -5.00000   0.75000   0.50000   90.00000   0.00000   0.00100    31   32   33    102
    33  -2.50000  -5.00000   1.25000   0.50000   90.00000   0.00000   0.00100    32   33   34    102
    34  -2.50000  -5.00000   1.75000   0.50000   90.00000   0.00000   0.00100    33   34   35    102
    35  -2.50000  -5.00000   2.25000   0.50000   90.00000   0.00000   0.00100    34   35   36    102
    36  -2.50000  -5.00000   2.75000   0.50000   90.00000   0.00000   0.00100    35   36   37    102
    37  -2.50000  -5.00000   3.25000   0.50000   90.00000   0.00000   0.00100    36   37   38    102
    38  -2.50000  -5.00000   3.75000   0.50000   90.00000   0.00000   0.00100    37   38   39    102
    39  -2.50000  -5.00000   4.25000   0.50000   90.00000   0.00000   0.00100    38   39   40    102
    40  -2.50000  -5.00000   4.75000   0.50000   90.00000   0.00000   0.00100    39   40    0    102
    41   2.50000  -5.00000  -4.75000   0.50000   90.00000   0.00000   0.00100     0   41   42    103
    42   2.50000  -5.00000  -4.25000   0.50000   90.00000   0.00000   0.00100    41   42   43    103
    43   2.50000  -5.00000  -3.75000   0.50000   90.00000   0.00000   0.00100    42   43   44    103
    44   2.50000  -5.00000  -3.25000   0.50000   90.00000   0.00000   0.00100    43   44   45    103
    45   2.50000  -5.00000  -2.75000   0.50000   90.00000   0.00000   0.00100    44   45   46    103
    46   2.50000  -5.00000  -2.25000   0.50000   90.00000   0.00000   0.00100    45   46   47    103
    47   2.50000  -5.00000  -1.75000   0.50000   90.00000   0.00000   0.00100    46   47   48    103
    48   2.50000  -5.00000  -1.25000   0.50000   90.00000   0.00000   0.00100    47   48   49    103
    49   2.50000  -5.00000  -0.75000   0.50000   90.00000   0.00000   0.00100    48   49   50    103
    50   2.50000  -5.00000  -0.25000   0.50000   90.00000   0.00000   0.00100    49   50   51    103
    51   2.50000  -5.00000   0.25000   0.50000   90.00000   0.00000   0.00100    50   51   52    103
    52   2.50000  -5.00000   0.75000   0.50000   90.00000   0.00000   0.00100    51   52   53    103
    53   2.50000  -5.00000   1.25000   0.50000   90.00000   0.00000   0.00100    52   53   54    103
    54   2.50000  -5.00000   1.75000   0.50000   90.00000   0.00000   0.00100    53   54   55    103
    55   2.50000  -5.00000   2.25000   0.50000   90.00000   0.00000   0.00100    54   55   56    103
    56   2.50000  -5.00000   2.75000   0.50000   90.00000   0.00000   0.00100    55   56   57    103
    57   2.50000  -5.00000   3.25000   0.50000   90.00000   0.00000   0.00100    56   57   58    103
    58   2.50000  -5.00000   3.75000   0.50000   90.00000   0.00000   0.00100    57   58   59    103
    59   2.50000  -5.00000   4.25000   0.50000   90.00000   0.00000   0.00100    58   59   60    103
    60   2.50000  -5.00000   4.75000   0.50000   90.00000   0.00000   0.00100    59   60    0    103
    61   7.50000  -5.00000  -4.75000   0.50000   90.00000   0.00000   0.00100     0   61   62    104
    62   7.50000  -5.00000  -4.25000   0.50000   90.00000   0.00000   0.00100    61   62   63    104
    63   7.50000  -5.00000  -3.75000   0.50000   90.00000   0.00000   0.00100    62   63   64    104
    64   7.50000  -5.00000  -3.25000   0.50000   90.00000   0.00000   0.00100    63   64   65    104
    65   7.50000  -5.00000  -2.75000   0.50000   90.00000   0.00000   0.00100    64   65   66    104
    66   7.50000  -5.00000  -2.25000   0.50000   90.00000   0.00000   0.00100    65   66   67    104
    67   7.50000  -5.00000  -1.75000   0.50000   90.00000   0.00000   0.00100    66   67   68    104
    68   7.50000  -5.00000  -1.25000   0.50000   90.00000   0.00000   0.00100    67   68   69    104
    69   7.50000  -5.00000  -0.75000   0.50000   90.00000   0.00000   0.00100    68   69   70    104
    70   7.50000  -5.00000  -0.25000   0.50000   90.00000   0.00000   0.00100    69   70   71    104
    71   7.50000  -5.00000   0.25000   0.50000   90.00000   0.00000   0.00100    70   71   72    104
    72   7.50000  -5.00000   0.75000   0.50000   90.00000   0.00000   0.00100    71   72   73    104
    73   7.50000  -5.00000   1.25000   0.50000   90.00000   0.00000   0.00100    72   73   74    104
    74   7.50000  -5.00000   1.75000   0.50000   90.00000   0.00000   0.00100    73   74   75    104
    75   7.50000  -5.00000   2.25000   0.50000   90.00000   0.00000   0.00100    74   75   76    104
    76   7.50000  -5.00000   2.75000   0.50000   90.00000   0.00000   0.00100    75   76   77    104
    77   7.50000  -5.00000   3.25000   0.50000   90.00000   0.00000   0.00100    76   77   78    104
    78   7.50000  -5.00000   3.75000   0.50000   90.00000   0.00000   0.00100    77   78   79    104
    79   7.50000  -5.00000   4.25000   0.50000   90.00000   0.00000   0.00100    78   79   80    104
    80   7.50000  -5.00000   4.75000   0.50000   90.00000   0.00000   0.00100    79   80    0    104
    81  -7.50000   0.00000  -4.75000   0.50000   90.00000   0.00000   0.00100     0   81   82    201
    82  -7.50000   0.00000  -4.25000   0.50000   90.00000   0.00000   0.00100    81   82   83    201
    83  -7.50000   0.00000  -3.75000   0.50000   90.00000   0.00000   0.00100    82   83   84    201
    84  -7.50000   0.00000  -3.25000   0.50000   90.00000   0.00000   0.00100    83   84   85    201
    85  -7.50000   0.00000  -2.75000   0.50000   90.00000   0.00000   0.00100    84   85   86    201
    86  -7.50000   0.00000  -2.25000   0.50000   90.00000   0.00000   0.00100    85   86   87    201
    87  -7.50000   0.00000  -1.75000   0.50000   90.00000   0.00000   0.00100    86   87   88    201
    88  -7.50000   0.00000  -1.25000   0.50000   90.00000   0.00000   0.00100    87   88   89    201
    89  -7.50000   0.00000  -0.75000   0.50000   90.00000   0.00000   0.00100    88   89   90    201
    90  -7.50000   0.00000  -0.25000   0.50000   90.00000   0.00000   0.00100    89   90   91    201
    91  -7.50000   0.00000   0.25000   0.50000   90.00000   0.00000   0.00100    90   91   92    201
    92  -7.50000   0.00000   0.75000   0.50000   90.00000   0.00000   0.00100    91   92   93    201
    93  -7.50000   0.00000   1.25000   0.50000   90.00000   0.00000   0.00100    92   93   94    201
    94  -7.50000   0.00000   1.75000   0.50000   90.00000   0.00000   0.00100    93   94   95    201
    95  -7.50000   0.00000   2.25000   0.50000   90.00000   0.00000   0.00100    94   95   96    201
    96  -7.50000   0.00000   2.75000   0.50000   90.00000   0.00000   0.00100    95   96   97    201
    97  -7.50000   0.00000   3.25000   0.50000   90.00000   0.00000   0.00100    96   97   98    201
    98  -7.50000   0.00000   3.75000   0.50000   90.00000   0.00000   0.00100    97   98   99    201
    99  -7.50000   0.00000   4.25000   0.50000   90.00000   0.00000   0.00100    98   99  100    201
   100  -7.50000   0.00000   4.75000   0.50000   90.00000   0.00000   0.00100    99  100    0    201
   101  -2.50000   0.00000  -4.75000   0.50000   90.00000   0.00000   0.00100     0  101  102    202
   102  -2.50000   0.00000  -4.25000   0.50000   90.00000   0.00000   0.00100   101  102  103    202
   103  -2.50000   0.00000  -3.75000   0.50000   90.00000   0.00000   0.00100   102  103  104    202
   104  -2.50000   0.00000  -3.25000   0.50000   90.00000   0.00000   0.00100   103  104  105    202
   105  -2.50000   0.00000  -2.75000   0.50000   90.00000   0.00000   0.00100   104  105  106    202
   106  -2.50000   0.00000  -2.25000   0.50000   90.00000   0.00000   0.00100   105  106  107    202
   107  -2.50000   0.00000  -1.75000   0.50000   90.00000   0.00000   0.00100   106  107  108    202
   108  -2.50000   0.00000  -1.25000   0.50000   90.00000   0.00000   0.00100   107  108  109    202
   109  -2.50000   0.00000  -0.75000   0.50000   90.00000   0.00000   0.00100   108  109  110    202
   110  -2.50000   0.00000  -0.25000   0.50000   90.00000   0.00000   0.00100   109  110  111    202
   111  -2.50000   0.00000   0.25000   0.50000   90.00000   0.00000   0.00100   110  111  112    202
   112  -2.50000   0.00000   0.75000   0.50000   90.00000   0.00000   0.00100   111  112  113    202
   113  -2.50000   0.00000   1.25000   0.50000   90.00000   0.00000   0.00100   112  113  114    202
   114  -2.50000   0.00000   1.75000   0.50000   90.00000   0.00000   0.00100   113  114  115    202
   115  -2.50000   0.00000   2.25000   0.50000   90.00000   0.00000   0.00100   114  115  116    202
   116  -2.50000   0.00000   2.75000   0.50000   90.00000   0.00000   0.00100   115  116  117    202
   117  -2.50000   0.00000   3.25000   0.50000   90.00000   0.00000   0.00100   116  117  118    202
   118  -2.50000   0.00000   3.75000   0.50000   90.00000   0.00000   0.00100   117  118  119    202
   119  -2.50000   0.00000   4.25000   0.50000   90.00000   0.00000   0.00100   118  119  120    202
   120  -2.50000   0.00000   4.75000   0.50000   90.00000   0.00000   0.00100   119  120    0    202
   121   2.50000   0.00000  -4.75000   0.50000   90.00000   0.00000   0.00100     0  121  122    203
   122   2.50000   0.00000  -4.25000   0.50000   90.00000   0.00000   0.00100   121  122  123    203
   123   2.50000   0.00000  -3.75000   0.50000   90.00000   0.00000   0.00100   122  123  124    203
   124   2.50000   0.00000  -3.25000   0.50000   90.00000   0.00000   0.00100   123  124  125    203
   125   2.50000   0.00000  -2.75000   0.50000   90.00000   0.00000   0.00100   124  125  126    203
   126   2.50000   0.00000  -2.25000   0.50000   90.00000   0.00000   0.00100   125  126  127    203
   127   2.50000   0.00000  -1.75000   0.50000   90.00000   0.00000   0.00100   126  127  128    203
   128   2.50000   0.00000  -1.25000   0.50000   90.00000   0.00000   0.00100   127  128  129    203
   129   2.50000   0.00000  -0.75000   0.50000   90.00000   0.00000   0.00100   128  129  130    203
   130   2.50000   0.00000  -0.25000   0.50000   90.00000   0.00000   0.00100   129  130  131    203
   131   2.50000   0.00000   0.25000   0.50000   90.00000   0.00000   0.00100   130  131  132    203
   132   2.50000   0.00000   0.75000   0.50000   90.00000   0.00000   0.00100   131  132  133    203
   133   2.50000   0.00000   1.25000   0.50000   90.00000   0.00000   0.00100   132  133  134    203
   134   2.50000   0.00000   1.75000   0.50000   90.00000   0.00000   0.00100   133  134  135    203
   135   2.50000   0.00000   2.25000   0.50000   90.00000   0.00000   0.00100   134  135  136    203
   136   2.50000   0.00000   2.75000   0.50000   90.00000   0.00000   0.00100   135  136  137    203
   137   2.50000   0.00000   3.25000   0.50000   90.00000   0.00000   0.00100   136  137  138    203
   138   2.50000   0.00000   3.75000   0.50000   90.00000   0.00000   0.00100   137  138  139    203
   139   2.50000   0.00000   4.25000   0.50000   90.00000   0.00000   0.00100   138  139  140    203
   140   2.50000   0.00000   4.75000   0.50000   90.00000   0.00000   0.00100   139  140    0    203
   141   7.50000   0.00000  -4.75000   0.50000   90.00000   0.00000   0.00100     0  141  142    204
   142   7.50000   0.00000  -4.25000   0.50000   90.00000   0.00000   0.00100   141  142  143    204
   143   7.50000   0.00000  -3.75000   0.50000   90.00000   0.00000   0.00100   142  143  144    204
   144   7.50000   0.00000  -3.25000   0.50000   90.00000   0.00000   0.00100   143  144  145    204
   145   7.50000   0.00000  -2.75000   0.50000   90.00000   0.00000   0.00100   144  145  146    204
   146   7.50000   0.00000  -2.25000   0.50000   90.00000   0.00000   0.00100   145  146  147    204
   147   7.50000   0.00000  -1.75000   0.50000   90.00000   0.00000   0.00100   146  147  148    204
   148   7.50000   0.00000  -1.25000   0.50000   90.00000   0.00000   0.00100   147  148  149    204
   149   7.50000   0.00000  -0.75000   0.50000   90.00000   0.00000   0.00100   148  149  150    204
   150   7.50000   0.00000  -0.25000   0.50000   90.00000   0.00000   0.00100   149  150  151    204
   151   7.50000   0.00000   0.25000   0.50000   90.00000   0.00000   0.00100   150  151  152    204
   152   7.50000   0.00000   0.75000   0.50000   90.00000   0.00000   0.00100   151  152  153    204
   153   7.50000   0.00000   1.25000   0.50000   90.00000   0.00000   0.00100   152  153  154    204
   154   7.50000   0.00000   1.75000   0.50000   90.00000   0.00000   0.00100   153  154  155    204
   155   7.50000   0.00000   2.25000   0.50000   90.00000   0.00000   0.00100   154  155  156    204
   156   7.50000   0.00000   2.75000   0.50000   90.00000   0.00000   0.00100   155  156  157    204
   157   7.50000   0.00000   3.25000   0.50000   90.00000   0.00000   0.00100   156  157  158    204
   158   7.50000   0.00000   3.75000   0.50000   90.00000   0.00000   0.00100   157  158  159    204
   159   7.50000   0.00000   4.25000   0.50000   90.00000   0.00000   0.00100   158  159  160    204
   160   7.50000   0.00000   4.75000   0.50000   90.00000   0.00000   0.00100   159  160    0    204
   161  -7.50000   5.00000  -4.75000   0.50000   90.00000   0.00000   0.00100     0  161  162    301
   162  -7.50000   5.00000  -4.25000   0.50000   90.00000   0.00000   0.00100   161  162  163    301
   163  -7.50000   5.00000  -3.75000   0.50000   90.00000   0.00000   0.00100   162  163  164    301
   164  -7.50000   5.00000  -3.25000   0.50000   90.00000   0.00000   0.00100   163  164  165    301
   165  -7.50000   5.00000  -2.75000   0.50000   90.00000   0.00000   0.00100   164  165  166    301
   166  -7.50000   5.00000  -2.25000   0.50000   90.00000   0.00000   0.00100   165  166  167    301
   167  -7.50000   5.00000  -1.75000   0.50000   90.00000   0.00000   0.00100   166  167  168    301
   168  -7.50000   5.00000  -1.25000   0.50000   90.00000   0.00000   0.00100   167  168  169    301
   169  -7.50000   5.00000  -0.75000   0.50000   90.00000   0.00000   0.00100   168  169  170    301
   170  -7.50000   5.00000  -0.25000   0.50000   90.00000   0.00000   0.00100   169  170  171    301
   171  -7.50000   5.00000   0.25000   0.50000   90.00000   0.00000   0.00100   170  171  172    301
   172  -7.50000   5.00000   0.75000   0.50000   90.00000   0.00000   0.00100   171  172  173    301
   173  -7.50000   5.00000   1.25000   0.50000   90.00000   0.00000   0.00100   172  173  174    301
   174  -7.50000   5.00000   1.75000   0.50000   90.00000   0.00000   0.00100   173  174  175    301
   175  -7.50000   5.00000   2.25000   0.50000   90.00000   0.00000   0.00100   174  175  176    301
   176  -7.50000   5.00000   2.75000   0.50000   90.00000   0.00000   0.00100   175  176  177    301
   177  -7.50000   5.00000   3.25000   0.50000   90.00000   0.00000   0.00100   176  177  178    301
   178  -7.50000   5.00000   3.75000   0.50000   90.00000   0.00000   0.00100   177  178  179    301
   179  -7.50000   5.00000   4.25000   0.50000   90.00000   0.00000   0.00100   178  179  180    301
   180  -7.50000   5.00000   4.75000   0.50000   90.00000   0.00000   0.00100   179  180    0    301
   181  -2.50000   5.00000  -4.75000   0.50000   90.00000   0.00000   0.00100     0  181  182    302
   182  -2.50000   5.00000  -4.25000   0.50000   90.00000   0.00000   0.00100   181  182  183    302
   183  -2.50000   5.00000  -3.75000   0.50000   90.00000   0.00000   0.00100   182  183  184    302
   184  -2.50000   5.00000  -3.25000   0.50000   90.00000   0.00000   0.00100   183  184  185    302
   185  -2.50000   5.00000  -2.75000   0.50000   90.00000   0.00000   0.00100   184  185  186    302
   186  -2.50000   5.00000  -2.25000   0.50000   90.00000   0.00000   0.00100   185  186  187    302
   187  -2.50000   5.00000  -1.75000   0.50000   90.00000   0.00000   0.00100   186  187  188    302
   188  -2.50000   5.00000  -1.25000   0.50000   90.00000   0.00000   0.00100   187  188  189    302
   189  -2.50000   5.00000  -0.75000   0.50000   90.00000   0.00000   0.00100   188  189  190    302
   190  -2.50000   5.00000  -0.25000   0.50000   90.00000   0.00000   0.00100   189  190  191    302
   191  -2.50000   5.00000   0.25000   0.50000   90.00000   0.00000   0.00100   190  191  192    302
   192  -2.50000   5.00000   0.75000   0.50000   90.00000   0.00000   0.00100   191  192  193    302
   193  -2.50000   5.00000   1.25000   0.50000   90.00000   0.00000   0.00100   192  193  194    302
   194  -2.50000   5.00000   1.75000   0.50000   90.00000   0.00000   0.00100   193  194  195    302
   195  -2.50000   5.00000   2.25000   0.50000   90.00000   0.00000   0.00100   194  195  196    302
   196  -2.50000   5.00000   2.75000   0.50000   90.00000   0.00000   0.00100   195  196  197    302
   197  -2.50000   5.00000   3.25000   0.50000   90.00000   0.00000   0.00100   196  197  198    302
   198  -2.50000   5.00000   3.75000   0.50000   90.00000   0.00000   0.00100   197  198  199    302
   199  -2.50000   5.00000   4.25000   0.50000   90.00000   0.00000   0.00100   198  199  200    302
   200  -2.50000   5.00000   4.75000   0.50000   90.00000   0.00000   0.00100   199  200    0    302
   201   2.50000   5.00000  -4.75000   0.50000   90.00000   0.00000   0.00100     0  201  202    303
   202   2.50000   5.00000  -4.25000   0.50000   90.00000   0.00000   0.00100   201  202  203    303
   203   2.50000   5.00000  -3.75000   0.50000   90.00000   0.00000   0.00100   202  203  204    303
   204   2.50000   5.00000  -3.25000   0.50000   90.00000   0.00000   0.00100   203  204  205    303
   205   2.50000   5.00000  -2.75000   0.50000   90.00000   0.00000   0.00100   204  205  206    303
   206   2.50000   5.00000  -2.25000   0.50000   90.00000   0.00000   0.00100   205  206  207    303
   207   2.50000   5.00000  -1.75000   0.50000   90.00000   0.00000   0.00100   206  207  208    303
   208   2.50000   5.00000  -1.25000   0.50000   90.00000   0.00000   0.00100   207  208  209    303
   209   2.50000   5.00000  -0.75000   0.50000   90.00000   0.00000   0.00100   208  209  210    303
   210   2.50000   5.00000  -0.25000   0.50000   90.00000   0.00000   0.00100   209  210  211    303
   211   2.50000   5.00000   0.25000   0.50000   90.00000   0.00000   0.00100   210  211  212    303
   212   2.50000   5.00000   0.75000   0.50000   90.00000   0.00000   0.00100   211  212  213    303
   213   2.50000   5.00000   1.25000   0.50000   90.00000   0.00000   0.00100   212  213  214    303
   214   2.50000   5.00000   1.75000   0.50000   90.00000   0.00000   0.00100   213  214  215    303
   215   2.50000   5.00000   2.25000   0.50000   90.00000   0.00000   0.00100   214  215  216    303
   216   2.50000   5.00000   2.75000   0.50000   90.00000   0.00000   0.00100   215  216  217    303
   217   2.50000   5.00000   3.25000   0.50000   90.00000   0.00000   0.00100   216  217  218    303
   218   2.50000   5.00000   3.75000   0.50000   90.00000   0.00000   0.00100   217  218  219    303
   219   2.50000   5.00000   4.25000   0.50000   90.00000   0.00000   0.00100   218  219  220    303
   220   2.50000   5.00000   4.75000   0.50000   90.00000   0.00000   0.00100   219  220    0    303
   221   7.50000   5.00000  -4.75000   0.50000   90.00000   0.00000   0.00100     0  221  222    304
   222   7.50000   5.00000  -4.25000   0.50000   90.00000   0.00000   0.00100   221  222  223    304
   223   7.50000   5.00000  -3.75000   0.50000   90.00000   0.00000   0.00100   222  223  224    304
   224   7.50000   5.00000  -3.25000   0.50000   90.00000   0.00000   0.00100   223  224  225    304
   225   7.50000   5.00000  -2.75000   0.50000   90.00000   0.00000   0.00100   224  225  226    304
   226   7.50000   5.00000  -2.25000   0.50000   90.00000   0.00000   0.00100   225  226  227    304
   227   7.50000   5.00000  -1.75000   0.50000   90.00000   0.00000   0.00100   226  227  228    304
   228   7.50000   5.00000  -1.25000   0.50000   90.00000   0.00000   0.00100   227  228  229    304
   229   7.50000   5.00000  -0.75000   0.50000   90.00000   0.00000   0.00100   228  229  230    304
   230   7.50000   5.00000  -0.25000   0.50000   90.00000   0.00000   0.00100   229  230  231    304
   231   7.50000   5.00000   0.25000   0.50000   90.00000   0.00000   0.00100   230  231  232    304
   232   7.50000   5.00000   0.75000   0.50000   90.00000   0.00000   0.00100   231  232  233    304
   233   7.50000   5.00000   1.25000   0.50000   90.00000   0.00000   0.00100   232  233  234    304
   234   7.50000   5.00000   1.75000   0.50000   90.00000   0.00000   0.00100   233  234  235    304
   235   7.50000   5.00000   2.25000   0.50000   90.00000   0.00000   0.00100   234  235  236    304
   236   7.50000   5.00000   2.75000   0.50000   90.00000   0.00000   0.00100   235  236  237    304
   237   7.50000   5.00000   3.25000   0.50000   90.00000   0.00000   0.00100   236  237  238    304
   238   7.50000   5.00000   3.75000   0.50000   90.00000   0.00000   0.00100   237  238  239    304
   239   7.50000   5.00000   4.25000   0.50000   90.00000   0.00000   0.00100   238  239  240    304
   240   7.50000   5.00000   4.75000   0.50000   90.00000   0.00000   0.00100   239  240    0    304






 ***** DATA CARD NO.  1   GN  -1     0     0     0  1.00000E+01  1.00000E-02  0.00000E+00  0.00000E+00  0.00000E+00  0.00000E+00
 ***** DATA CARD NO.  2   FR   0     0     0     0  1.50000E+02  0.00000E+00  0.00000E+00  0.00000E+00  0.00000E+00  0.00000E+00
 ***** DATA CARD NO.  3   EX   0   101    10     0 -9.77310E-02  0.00000E+00  0.00000E+00  0.00000E+00  0.00000E+00  0.00000E+00
 ***** DATA CARD NO.  4   EX   0   102    10     0  1.85280E-02  0.00000E+00  0.00000E+00  0.00000E+00  0.00000E+00  0.00000E+00
 ***** DATA CARD NO.  5   EX   0   103    10     0 -3.60160E-01  0.00000E+00  0.00000E+00  0.00000E+00  0.00000E+00  0.00000E+00
 ***** DATA CARD NO.  6   EX   0   104    10     0  2.28130E-02  0.00000E+00  0.00000E+00  0.00000E+00  0.00000E+00  0.00000E+00
 ***** DATA CARD NO.  7   EX   0   201    10     0 -1.09330E-01  0.00000E+00  0.00000E+00  0.00000E+00  0.00000E+00  0.00000E+00
 ***** DATA CARD NO.  8   EX   0   202    10     0  3.16650E-02  0.00000E+00  0.00000E+00  0.00000E+00  0.00000E+00  0.00000E+00
 ***** DATA CARD NO.  9   EX   0   203    10     0 -4.22720E-01  0.00000E+00  0.00000E+00  0.00000E+00  0.00000E+00  0.00000E+00
 ***** DATA CARD NO. 10   EX   0   204    10     0  2.73570E-02  0.00000E+00  0.00000E+00  0.00000E+00  0.00000E+00  0.00000E+00
 ***** DATA CARD NO. 11   EX   0   301    10     0 -9.77310E-02  0.00000E+00  0.00000E+00  0.00000E+00  0.00000E+00  0.00000E+00
 ***** DATA CARD NO. 12   EX   0   302    10     0  1.85280E-02  0.00000E+00  0.00000E+00  0.00000E+00  0.00000E+00  0.00000E+00
 ***** DATA CARD NO. 13   EX   0   303    10     0 -3.60160E-01  0.00000E+00  0.00000E+00  0.00000E+00  0.00000E+00  0.00000E+00
 ***** DATA CARD NO. 14   EX   0   304    10     0  2.28130E-02  0.00000E+00  0.00000E+00  0.00000E+00  0.00000E+00  0.00000E+00
 ***** DATA CARD NO. 15   RP   0    19    72  1010  0.00000E+00  0.00000E+00  5.00000E+00  5.00000E+00  0.00000E+00  0.00000E+00




                                 - - - - - - FREQUENCY - - - - - -

                                    FREQUENCY= 1.5000E+02 MHZ
                                    WAVELENGTH= 1.9987E+00 METERS




                    APPROXIMATE INTEGRATION EMPLOYED FOR SEGMENTS MORE THAN   1.000 WAVELENGTHS APART



                               - - - STRUCTURE IMPEDANCE LOADING - - -

                                   THIS STRUCTURE IS NOT LOADED



                                  - - - ANTENNA ENVIRONMENT - - -

                                            FREE SPACE



                                - - - MATRIX TIMING - - -

                        FILL=    0.031 SEC.,  FACTOR=    0.016 SEC.



                                          - - - ANTENNA INPUT PARAMETERS - - -

   TAG   SEG.    VOLTAGE (VOLTS)         CURRENT (AMPS)         IMPEDANCE (OHMS)        ADMITTANCE (MHOS)      POWER
   NO.   NO.    REAL        IMAG.       REAL        IMAG.       REAL        IMAG.       REAL        IMAG.     (WATTS)
   101    10-9.77310E-02 0.00000E+00-2.80901E-04 1.39595E-04 2.79014E+02 1.38657E+02 2.87423E-03-1.42836E-03 1.37264E-05
   102    30 1.85280E-02 0.00000E+00 2.13909E-05-4.79317E-05 1.43857E+02 3.22350E+02 1.15452E-03-2.58699E-03 1.98165E-07
   103    50-3.60160E-01 0.00000E+00-1.05974E-03 4.86637E-04 2.80672E+02 1.28886E+02 2.94242E-03-1.35117E-03 1.90838E-04
   104    70 2.28130E-02 0.00000E+00 3.83199E-05-4.52522E-05 2.48620E+02 2.93597E+02 1.67974E-03-1.98362E-03 4.37096E-07
   201    90-1.09330E-01 0.00000E+00-3.24283E-04 1.62750E-04 2.69310E+02 1.35160E+02 2.96610E-03-1.48861E-03 1.77270E-05
   202   110 3.16650E-02 0.00000E+00 2.86527E-05-9.79044E-05 8.71869E+01 2.97912E+02 9.04871E-04-3.09188E-03 4.53644E-07
   203   130-4.22720E-01 0.00000E+00-1.23115E-03 5.71952E-04 2.82405E+02 1.31196E+02 2.91244E-03-1.35303E-03 2.60215E-04
   204   150 2.73570E-02 0.00000E+00 2.65621E-05-7.66826E-05 1.10338E+02 3.18536E+02 9.70944E-04-2.80304E-03 3.63330E-07
   301   170-9.77310E-02 0.00000E+00-2.80901E-04 1.39595E-04 2.79014E+02 1.38657E+02 2.87423E-03-1.42836E-03 1.37264E-05
   302   190 1.85280E-02 0.00000E+00 2.13909E-05-4.79317E-05 1.43857E+02 3.22350E+02 1.15452E-03-2.58699E-03 1.98165E-07
   303   210-3.60160E-01 0.00000E+00-1.05974E-03 4.86637E-04 2.80672E+02 1.28886E+02 2.94242E-03-1.35117E-03 1.90838E-04
   304   230 2.28130E-02 0.00000E+00 3.83199E-05-4.52522E-05 2.48620E+02 2.93597E+02 1.67974E-03-1.98362E-03 4.37096E-07



                             - - - CURRENTS AND LOCATION - - -

                                 DISTANCES IN WAVELENGTHS


  SEG.  TAG    COORD. OF SEG. CENTER     SEG.            - - - CURRENT (AMPS) - - -
  NO.   NO.     X        Y        Z      LENGTH     REAL        IMAG.       MAG.        PHASE
     1  101  -3.7525  -2.5017  -2.3766  0.25017  -2.6571E-04  1.8566E-04  3.2415E-04  145.057
     2  101  -3.7525  -2.5017  -2.1264  0.25017  -2.5477E-04  1.2941E-04  2.8575E-04  153.072
     3  101  -3.7525  -2.5017  -1.8763  0.25017   2.5250E-04 -2.0550E-04  3.2555E-04  -39.140
     4  101  -3.7525  -2.5017  -1.6261  0.25017   2.5409E-04 -1.2171E-04  2.8174E-04  -25.595
     5  101  -3.7525  -2.5017  -1.3759  0.25017  -2.4265E-04  2.0723E-04  3.1910E-04  139.501
     6  101  -3.7525  -2.5017  -1.1258  0.25017  -2.4576E-04  1.1030E-04  2.6938E-04  155.828
     7  101  -3.7525  -2.5017  -0.8756  0.25017   2.5305E-04 -2.1690E-04  3.3329E-04  -40.602
     8  101  -3.7525  -2.5017  -0.6254  0.25017   2.6067E-04 -1.0817E-04  2.8222E-04  -22.537
     9  101  -3.7525  -2.5017  -0.3753  0.25017  -2.4889E-04  2.1838E-04  3.3112E-04  138.736
    10  101  -3.7525  -2.5017  -0.1251  0.25017  -2.8090E-04  1.3959E-04  3.1368E-04  153.575
    11  101  -3.7525  -2.5017   0.1251  0.25017   2.1596E-04  9.9938E-06  2.1619E-04    2.649
    12  101  -3.7525  -2.5017   0.3753  0.25017   2.5945E-04 -8.9523E-05  2.7446E-04  -19.037
    13  101  -3.7525  -2.5017   0.6254  0.25017  -2.1874E-04  5.2559E-06  2.1881E-04  178.624
    14  101  -3.7525  -2.5017   0.8756  0.25017  -2.5570E-04  9.1504E-05  2.7158E-04  160.310
    15  101  -3.7525  -2.5017   1.1258  0.25017   2.1838E-04 -1.3535E-05  2.1880E-04   -3.547
    16  101  -3.7525  -2.5017   1.3759  0.25017   2.5099E-04 -9.4154E-05  2.6807E-04  -20.563
    17  101  -3.7525  -2.5017   1.6261  0.25017  -2.2482E-04  1.2508E-05  2.2517E-04  176.816
    18  101  -3.7525  -2.5017   1.8763  0.25017  -2.5636E-04  8.1433E-05  2.6898E-04  162.377
    19  101  -3.7525  -2.5017   2.1264  0.25017   2.2499E-04 -2.7674E-05  2.2669E-04   -7.012
    20  101  -3.7525  -2.5017   2.3766  0.25017   2.5401E-04 -6.8005E-05  2.6295E-04  -14.988
    21  102  -1.2508  -2.5017  -2.3766  0.25017   1.4248E-05 -6.5681E-05  6.7208E-05  -77.761
    22  102  -1.2508  -2.5017  -2.1264  0.25017  -1.3500E-05 -4.3134E-05  4.5197E-05 -107.379
    23  102  -1.2508  -2.5017  -1.8763  0.25017  -5.0415E-05  7.8978E-05  9.3697E-05  122.552
    24  102  -1.2508  -2.5017  -1.6261  0.25017  -1.0957E-05  5.6966E-05  5.8010E-05  100.887
    25  102  -1.2508  -2.5017  -1.3759  0.25017   5.2551E-05 -4.8390E-05  7.1437E-05  -42.640
    26  102  -1.2508  -2.5017  -1.1258  0.25017   4.1464E-05 -7.5390E-06  4.2144E-05  -10.305
    27  102  -1.2508  -2.5017  -0.8756  0.25017  -8.1257E-06  1.0243E-04  1.0275E-04   94.536
    28  102  -1.2508  -2.5017  -0.6254  0.25017   1.4833E-06  4.5660E-05  4.5684E-05   88.139
    29  102  -1.2508  -2.5017  -0.3753  0.25017   4.3064E-05 -8.7552E-05  9.7570E-05  -63.809
    30  102  -1.2508  -2.5017  -0.1251  0.25017   2.1391E-05 -4.7932E-05  5.2488E-05  -65.950
    31  102  -1.2508  -2.5017   0.1251  0.25017  -3.9047E-05  6.0585E-05  7.2078E-05  122.802
    32  102  -1.2508  -2.5017   0.3753  0.25017  -3.7880E-05  7.8355E-05  8.7031E-05  115.801
    33  102  -1.2508  -2.5017   0.6254  0.25017   1.2497E-05 -1.4951E-05  1.9486E-05  -50.108
    34  102  -1.2508  -2.5017   0.8756  0.25017   1.6582E-05 -4.7296E-05  5.0119E-05  -70.679
    35  102  -1.2508  -2.5017   1.1258  0.25017  -1.8845E-05  1.8403E-05  2.6340E-05  135.680
    36  102  -1.2508  -2.5017   1.3759  0.25017  -4.0336E-06  2.5949E-05  2.6260E-05   98.836
    37  102  -1.2508  -2.5017   1.6261  0.25017   5.1201E-05 -5.3042E-05  7.3722E-05  -46.012
    38  102  -1.2508  -2.5017   1.8763  0.25017   4.9200E-05 -6.4447E-05  8.1081E-05  -52.641
    39  102  -1.2508  -2.5017   2.1264  0.25017  -9.8408E-06  1.6596E-05  1.9295E-05  120.666
    40  102  -1.2508  -2.5017   2.3766  0.25017  -2.3361E-05  3.4747E-05  4.1870E-05  123.914
    41  103   1.2508  -2.5017  -2.3766  0.25017  -1.0018E-03  6.4807E-04  1.1932E-03  147.101
    42  103   1.2508  -2.5017  -2.1264  0.25017  -9.6559E-04  4.4346E-04  1.0625E-03  155.332
    43  103   1.2508  -2.5017  -1.8763  0.25017   9.4162E-04 -7.2022E-04  1.1855E-03  -37.411
    44  103   1.2508  -2.5017  -1.6261  0.25017   9.4905E-04 -4.0777E-04  1.0329E-03  -23.251
    45  103   1.2508  -2.5017  -1.3759  0.25017  -9.1866E-04  7.4272E-04  1.1813E-03  141.045
    46  103   1.2508  -2.5017  -1.1258  0.25017  -9.3171E-04  3.8876E-04  1.0096E-03  157.351
    47  103   1.2508  -2.5017  -0.8756  0.25017   9.3996E-04 -7.5071E-04  1.2030E-03  -38.613
    48  103   1.2508  -2.5017  -0.6254  0.25017   9.6448E-04 -3.5173E-04  1.0266E-03  -20.036
    49  103   1.2508  -2.5017  -0.3753  0.25017  -9.4866E-04  7.8228E-04  1.2296E-03  140.490
    50  103   1.2508  -2.5017  -0.1251  0.25017  -1.0597E-03  4.8664E-04  1.1661E-03  155.335
    51  103   1.2508  -2.5017   0.1251  0.25017   8.1301E-04  7.0015E-05  8.1602E-04    4.922
    52  103   1.2508  -2.5017   0.3753  0.25017   9.7359E-04 -2.9940E-04  1.0186E-03  -17.094
    53  103   1.2508  -2.5017   0.6254  0.25017  -8.2367E-04 -1.7375E-05  8.2385E-04 -178.792
    54  103   1.2508  -2.5017   0.8756  0.25017  -9.5550E-04  3.0097E-04  1.0018E-03  162.516
    55  103   1.2508  -2.5017   1.1258  0.25017   8.2837E-04 -1.5143E-05  8.2851E-04   -1.047
    56  103   1.2508  -2.5017   1.3759  0.25017   9.4548E-04 -3.0531E-04  9.9355E-04  -17.896
    57  103   1.2508  -2.5017   1.6261  0.25017  -8.4002E-04  2.3267E-05  8.4034E-04  178.413
    58  103   1.2508  -2.5017   1.8763  0.25017  -9.4498E-04  2.7383E-04  9.8386E-04  163.840
    59  103   1.2508  -2.5017   2.1264  0.25017   8.6713E-04 -6.2757E-05  8.6940E-04   -4.139
    60  103   1.2508  -2.5017   2.3766  0.25017   9.6163E-04 -2.1186E-04  9.8469E-04  -12.424
    61  104   3.7525  -2.5017  -2.3766  0.25017   3.0873E-05 -6.1774E-05  6.9059E-05  -63.446
    62  104   3.7525  -2.5017  -2.1264  0.25017   7.2770E-06 -3.9602E-05  4.0265E-05  -79.588
    63  104   3.7525  -2.5017  -1.8763  0.25017  -5.9913E-05  7.3478E-05  9.4808E-05  129.193
    64  104   3.7525  -2.5017  -1.6261  0.25017  -2.7375E-05  4.8084E-05  5.5330E-05  119.653
    65  104   3.7525  -2.5017  -1.3759  0.25017   6.1357E-05 -5.2647E-05  8.0848E-05  -40.631
    66  104   3.7525  -2.5017  -1.1258  0.25017   5.2816E-05 -1.1699E-05  5.4096E-05  -12.489
    67  104   3.7525  -2.5017  -0.8756  0.25017  -2.3906E-05  9.3056E-05  9.6078E-05  104.408
    68  104   3.7525  -2.5017  -0.6254  0.25017  -1.6367E-05  3.9318E-05  4.2588E-05  112.600
    69  104   3.7525  -2.5017  -0.3753  0.25017   5.4518E-05 -8.3248E-05  9.9511E-05  -56.780
    70  104   3.7525  -2.5017  -0.1251  0.25017   3.8320E-05 -4.5252E-05  5.9297E-05  -49.742
    71  104   3.7525  -2.5017   0.1251  0.25017  -4.7791E-05  4.1791E-05  6.3486E-05  138.832
    72  104   3.7525  -2.5017   0.3753  0.25017  -5.0077E-05  6.4674E-05  8.1795E-05  127.751
    73  104   3.7525  -2.5017   0.6254  0.25017   2.5303E-05 -6.9440E-06  2.6238E-05  -15.346
    74  104   3.7525  -2.5017   0.8756  0.25017   3.0341E-05 -3.9948E-05  5.0164E-05  -52.783
    75  104   3.7525  -2.5017   1.1258  0.25017  -3.2919E-05  1.1049E-05  3.4724E-05  161.447
    76  104   3.7525  -2.5017   1.3759  0.25017  -2.1877E-05  2.4451E-05  3.2809E-05  131.820
    77  104   3.7525  -2.5017   1.6261  0.25017   5.8251E-05 -3.7112E-05  6.9069E-05  -32.501
    78  104   3.7525  -2.5017   1.8763  0.25017   5.8099E-05 -5.3506E-05  7.8984E-05  -42.644
    79  104   3.7525  -2.5017   2.1264  0.25017  -2.5072E-05  8.2785E-06  2.6403E-05  161.727
    80  104   3.7525  -2.5017   2.3766  0.25017  -3.7342E-05  2.6763E-05  4.5943E-05  144.371
    81  201  -3.7525   0.0000  -2.3766  0.25017  -3.0917E-04  2.1432E-04  3.7619E-04  145.270
    82  201  -3.7525   0.0000  -2.1264  0.25017  -3.0194E-04  1.5476E-04  3.3929E-04  152.862
    83  201  -3.7525   0.0000  -1.8763  0.25017   2.8487E-04 -2.2819E-04  3.6500E-04  -38.696
    84  201  -3.7525   0.0000  -1.6261  0.25017   2.9268E-04 -1.3639E-04  3.2289E-04  -24.986
    85  201  -3.7525   0.0000  -1.3759  0.25017  -2.7628E-04  2.4035E-04  3.6619E-04  138.978
    86  201  -3.7525   0.0000  -1.1258  0.25017  -2.7709E-04  1.3666E-04  3.0896E-04  153.747
    87  201  -3.7525   0.0000  -0.8756  0.25017   3.0112E-04 -2.3302E-04  3.8075E-04  -37.734
    88  201  -3.7525   0.0000  -0.6254  0.25017   3.0922E-04 -1.1261E-04  3.2909E-04  -20.010
    89  201  -3.7525   0.0000  -0.3753  0.25017  -2.8352E-04  2.5499E-04  3.8132E-04  138.032
    90  201  -3.7525   0.0000  -0.1251  0.25017  -3.2428E-04  1.6275E-04  3.6283E-04  153.349
    91  201  -3.7525   0.0000   0.1251  0.25017   2.4801E-04  9.2522E-06  2.4818E-04    2.136
    92  201  -3.7525   0.0000   0.3753  0.25017   2.9587E-04 -1.0339E-04  3.1342E-04  -19.261
    93  201  -3.7525   0.0000   0.6254  0.25017  -2.5974E-04  6.7300E-06  2.5983E-04  178.516
    94  201  -3.7525   0.0000   0.8756  0.25017  -3.0148E-04  1.0207E-04  3.1829E-04  161.296
    95  201  -3.7525   0.0000   1.1258  0.25017   2.5318E-04 -1.8645E-05  2.5386E-04   -4.212
    96  201  -3.7525   0.0000   1.3759  0.25017   2.9888E-04 -1.0498E-04  3.1678E-04  -19.354
    97  201  -3.7525   0.0000   1.6261  0.25017  -2.4649E-04  1.7470E-05  2.4711E-04  175.946
    98  201  -3.7525   0.0000   1.8763  0.25017  -2.8280E-04  8.5395E-05  2.9541E-04  163.198
    99  201  -3.7525   0.0000   2.1264  0.25017   2.6949E-04 -4.6669E-05  2.7350E-04   -9.825
   100  201  -3.7525   0.0000   2.3766  0.25017   2.9637E-04 -8.4501E-05  3.0818E-04  -15.914
   101  202  -1.2508   0.0000  -2.3766  0.25017   1.3349E-05 -1.3058E-04  1.3126E-04  -84.163
   102  202  -1.2508   0.0000  -2.1264  0.25017  -2.0914E-05 -1.0226E-04  1.0437E-04 -101.559
   103  202  -1.2508   0.0000  -1.8763  0.25017  -5.6359E-05  1.3332E-04  1.4474E-04  112.916
   104  202  -1.2508   0.0000  -1.6261  0.25017  -2.6261E-06  1.0767E-04  1.0770E-04   91.397
   105  202  -1.2508   0.0000  -1.3759  0.25017   6.7385E-05 -9.5659E-05  1.1701E-04  -54.838
   106  202  -1.2508   0.0000  -1.1258  0.25017   4.2937E-05 -3.9985E-05  5.8672E-05  -42.961
   107  202  -1.2508   0.0000  -0.8756  0.25017  -1.9371E-05  1.6550E-04  1.6663E-04   96.676
   108  202  -1.2508   0.0000  -0.6254  0.25017  -1.6169E-06  8.1217E-05  8.1233E-05   91.141
   109  202  -1.2508   0.0000  -0.3753  0.25017   5.4376E-05 -1.5882E-04  1.6787E-04  -71.100
   110  202  -1.2508   0.0000  -0.1251  0.25017   2.8653E-05 -9.7904E-05  1.0201E-04  -73.687
   111  202  -1.2508   0.0000   0.1251  0.25017  -4.7384E-05  1.0119E-04  1.1174E-04  115.092
   112  202  -1.2508   0.0000   0.3753  0.25017  -4.7194E-05  1.3667E-04  1.4459E-04  109.051
   113  202  -1.2508   0.0000   0.6254  0.25017   1.8435E-05 -3.5591E-05  4.0082E-05  -62.618
   114  202  -1.2508   0.0000   0.8756  0.25017   2.9828E-05 -9.1298E-05  9.6047E-05  -71.907
   115  202  -1.2508   0.0000   1.1258  0.25017  -1.6182E-05  3.8423E-05  4.1692E-05  112.838
   116  202  -1.2508   0.0000   1.3759  0.25017  -1.2378E-05  5.4703E-05  5.6086E-05  102.750
   117  202  -1.2508   0.0000   1.6261  0.25017   4.5752E-05 -9.1754E-05  1.0253E-04  -63.497
   118  202  -1.2508   0.0000   1.8763  0.25017   5.2006E-05 -1.0198E-04  1.1447E-04  -62.980
   119  202  -1.2508   0.0000   2.1264  0.25017  -5.9052E-06  6.0262E-05  6.0551E-05   95.597
   120  202  -1.2508   0.0000   2.3766  0.25017  -2.2786E-05  8.0667E-05  8.3824E-05  105.774
   121  203   1.2508   0.0000  -2.3766  0.25017  -1.1581E-03  7.6175E-04  1.3862E-03  146.665
   122  203   1.2508   0.0000  -2.1264  0.25017  -1.1276E-03  5.2919E-04  1.2456E-03  154.859
   123  203   1.2508   0.0000  -1.8763  0.25017   1.0713E-03 -8.3312E-04  1.3571E-03  -37.871
   124  203   1.2508   0.0000  -1.6261  0.25017   1.0908E-03 -4.7444E-04  1.1895E-03  -23.506
   125  203   1.2508   0.0000  -1.3759  0.25017  -1.0544E-03  8.7212E-04  1.3684E-03  140.406
   126  203   1.2508   0.0000  -1.1258  0.25017  -1.0659E-03  4.6908E-04  1.1645E-03  156.246
   127  203   1.2508   0.0000  -0.8756  0.25017   1.0957E-03 -8.5877E-04  1.3921E-03  -38.089
   128  203   1.2508   0.0000  -0.6254  0.25017   1.1221E-03 -4.0247E-04  1.1921E-03  -19.732
   129  203   1.2508   0.0000  -0.3753  0.25017  -1.0945E-03  9.1309E-04  1.4254E-03  140.164
   130  203   1.2508   0.0000  -0.1251  0.25017  -1.2311E-03  5.7195E-04  1.3575E-03  155.082
   131  203   1.2508   0.0000   0.1251  0.25017   9.3102E-04  9.6969E-05  9.3606E-04    5.946
   132  203   1.2508   0.0000   0.3753  0.25017   1.1208E-03 -3.4095E-04  1.1715E-03  -16.919
   133  203   1.2508   0.0000   0.6254  0.25017  -9.5592E-04 -2.4571E-05  9.5624E-04 -178.528
   134  203   1.2508   0.0000   0.8756  0.25017  -1.1130E-03  3.4935E-04  1.1665E-03  162.574
   135  203   1.2508   0.0000   1.1258  0.25017   9.5236E-04 -1.0996E-05  9.5242E-04   -0.661
   136  203   1.2508   0.0000   1.3759  0.25017   1.1050E-03 -3.5371E-04  1.1602E-03  -17.750
   137  203   1.2508   0.0000   1.6261  0.25017  -9.4475E-04  1.8116E-05  9.4492E-04  178.901
   138  203   1.2508   0.0000   1.8763  0.25017  -1.0729E-03  3.0667E-04  1.1158E-03  164.048
   139  203   1.2508   0.0000   2.1264  0.25017   1.0027E-03 -8.2225E-05  1.0061E-03   -4.688
   140  203   1.2508   0.0000   2.3766  0.25017   1.1059E-03 -2.5079E-04  1.1340E-03  -12.777
   141  204   3.7525   0.0000  -2.3766  0.25017   1.2963E-05 -1.0282E-04  1.0363E-04  -82.814
   142  204   3.7525   0.0000  -2.1264  0.25017  -1.3812E-05 -7.9513E-05  8.0704E-05  -99.855
   143  204   3.7525   0.0000  -1.8763  0.25017  -4.6163E-05  1.0564E-04  1.1529E-04  113.604
   144  204   3.7525   0.0000  -1.6261  0.25017  -3.6832E-06  8.3667E-05  8.3748E-05   92.521
   145  204   3.7525   0.0000  -1.3759  0.25017   5.6344E-05 -7.6510E-05  9.5017E-05  -53.631
   146  204   3.7525   0.0000  -1.1258  0.25017   3.7528E-05 -3.0921E-05  4.8625E-05  -39.487
   147  204   3.7525   0.0000  -0.8756  0.25017  -1.5666E-05  1.3127E-04  1.3220E-04   96.806
   148  204   3.7525   0.0000  -0.6254  0.25017  -1.3264E-06  6.3758E-05  6.3772E-05   91.192
   149  204   3.7525   0.0000  -0.3753  0.25017   4.7399E-05 -1.2491E-04  1.3360E-04  -69.220
   150  204   3.7525   0.0000  -0.1251  0.25017   2.6562E-05 -7.6683E-05  8.1153E-05  -70.894
   151  204   3.7525   0.0000   0.1251  0.25017  -3.9213E-05  7.3905E-05  8.3664E-05  117.950
   152  204   3.7525   0.0000   0.3753  0.25017  -4.0565E-05  1.0486E-04  1.1243E-04  111.149
   153  204   3.7525   0.0000   0.6254  0.25017   1.5053E-05 -2.4340E-05  2.8619E-05  -58.266
   154  204   3.7525   0.0000   0.8756  0.25017   2.4739E-05 -7.0651E-05  7.4857E-05  -70.702
   155  204   3.7525   0.0000   1.1258  0.25017  -1.4833E-05  2.6168E-05  3.0080E-05  119.547
   156  204   3.7525   0.0000   1.3759  0.25017  -1.1370E-05  4.2043E-05  4.3553E-05  105.133
   157  204   3.7525   0.0000   1.6261  0.25017   3.8641E-05 -6.8052E-05  7.8257E-05  -60.411
   158  204   3.7525   0.0000   1.8763  0.25017   4.3562E-05 -7.9855E-05  9.0964E-05  -61.387
   159  204   3.7525   0.0000   2.1264  0.25017  -6.0345E-06  4.1417E-05  4.1855E-05   98.290
   160  204   3.7525   0.0000   2.3766  0.25017  -1.9542E-05  5.9925E-05  6.3031E-05  108.061
   161  301  -3.7525   2.5017  -2.3766  0.25017  -2.6571E-04  1.8566E-04  3.2415E-04  145.057
   162  301  -3.7525   2.5017  -2.1264  0.25017  -2.5477E-04  1.2941E-04  2.8575E-04  153.072
   163  301  -3.7525   2.5017  -1.8763  0.25017   2.5250E-04 -2.0550E-04  3.2555E-04  -39.140
   164  301  -3.7525   2.5017  -1.6261  0.25017   2.5409E-04 -1.2171E-04  2.8174E-04  -25.595
   165  301  -3.7525   2.5017  -1.3759  0.25017  -2.4265E-04  2.0723E-04  3.1910E-04  139.501
   166  301  -3.7525   2.5017  -1.1258  0.25017  -2.4576E-04  1.1030E-04  2.6938E-04  155.828
   167  301  -3.7525   2.5017  -0.8756  0.25017   2.5305E-04 -2.1690E-04  3.3329E-04  -40.602
   168  301  -3.7525   2.5017  -0.6254  0.25017   2.6067E-04 -1.0817E-04  2.8222E-04  -22.537
   169  301  -3.7525   2.5017  -0.3753  0.25017  -2.4889E-04  2.1838E-04  3.3112E-04  138.736
   170  301  -3.7525   2.5017  -0.1251  0.25017  -2.8090E-04  1.3959E-04  3.1368E-04  153.575
   171  301  -3.7525   2.5017   0.1251  0.25017   2.1596E-04  9.9938E-06  2.1619E-04    2.649
   172  301  -3.7525   2.5017   0.3753  0.25017   2.5945E-04 -8.9523E-05  2.7446E-04  -19.037
   173  301  -3.7525   2.5017   0.6254  0.25017  -2.1874E-04  5.2559E-06  2.1881E-04  178.624
   174  301  -3.7525   2.5017   0.8756  0.25017  -2.5570E-04  9.1504E-05  2.7158E-04  160.310
   175  301  -3.7525   2.5017   1.1258  0.25017   2.1838E-04 -1.3535E-05  2.1880E-04   -3.547
   176  301  -3.7525   2.5017   1.3759  0.25017   2.5099E-04 -9.4154E-05  2.6807E-04  -20.563
   177  301  -3.7525   2.5017   1.6261  0.25017  -2.2482E-04  1.2508E-05  2.2517E-04  176.816
   178  301  -3.7525   2.5017   1.8763  0.25017  -2.5636E-04  8.1433E-05  2.6898E-04  162.377
   179  301  -3.7525   2.5017   2.1264  0.25017   2.2499E-04 -2.7674E-05  2.2669E-04   -7.012
   180  301  -3.7525   2.5017   2.3766  0.25017   2.5401E-04 -6.8005E-05  2.6295E-04  -14.988
   181  302  -1.2508   2.5017  -2.3766  0.25017   1.4248E-05 -6.5681E-05  6.7208E-05  -77.761
   182  302  -1.2508   2.5017  -2.1264  0.25017  -1.3500E-05 -4.3134E-05  4.5197E-05 -107.379
   183  302  -1.2508   2.5017  -1.8763  0.25017  -5.0415E-05  7.8978E-05  9.3697E-05  122.552
   184  302  -1.2508   2.5017  -1.6261  0.25017  -1.0957E-05  5.6966E-05  5.8010E-05  100.887
   185  302  -1.2508   2.5017  -1.3759  0.25017   5.2551E-05 -4.8390E-05  7.1437E-05  -42.640
   186  302  -1.2508   2.5017  -1.1258  0.25017   4.1464E-05 -7.5390E-06  4.2144E-05  -10.305
   187  302  -1.2508   2.5017  -0.8756  0.25017  -8.1257E-06  1.0243E-04  1.0275E-04   94.536
   188  302  -1.2508   2.5017  -0.6254  0.25017   1.4833E-06  4.5660E-05  4.5684E-05   88.139
   189  302  -1.2508   2.5017  -0.3753  0.25017   4.3064E-05 -8.7552E-05  9.7570E-05  -63.809
   190  302  -1.2508   2.5017  -0.1251  0.25017   2.1391E-05 -4.7932E-05  5.2488E-05  -65.950
   191  302  -1.2508   2.5017   0.1251  0.25017  -3.9047E-05  6.0585E-05  7.2078E-05  122.802
   192  302  -1.2508   2.5017   0.3753  0.25017  -3.7880E-05  7.8355E-05  8.7031E-05  115.801
   193  302  -1.2508   2.5017   0.6254  0.25017   1.2497E-05 -1.4951E-05  1.9486E-05  -50.108
   194  302  -1.2508   2.5017   0.8756  0.25017   1.6582E-05 -4.7296E-05  5.0119E-05  -70.679
   195  302  -1.2508   2.5017   1.1258  0.25017  -1.8845E-05  1.8403E-05  2.6340E-05  135.680
   196  302  -1.2508   2.5017   1.3759  0.25017  -4.0336E-06  2.5949E-05  2.6260E-05   98.836
   197  302  -1.2508   2.5017   1.6261  0.25017   5.1201E-05 -5.3042E-05  7.3722E-05  -46.012
   198  302  -1.2508   2.5017   1.8763  0.25017   4.9200E-05 -6.4447E-05  8.1081E-05  -52.641
   199  302  -1.2508   2.5017   2.1264  0.25017  -9.8408E-06  1.6596E-05  1.9295E-05  120.666
   200  302  -1.2508   2.5017   2.3766  0.25017  -2.3361E-05  3.4747E-05  4.1870E-05  123.914
   201  303   1.2508   2.5017  -2.3766  0.25017  -1.0018E-03  6.4807E-04  1.1932E-03  147.101
   202  303   1.2508   2.5017  -2.1264  0.25017  -9.6559E-04  4.4346E-04  1.0625E-03  155.332
   203  303   1.2508   2.5017  -1.8763  0.25017   9.4162E-04 -7.2022E-04  1.1855E-03  -37.411
   204  303   1.2508   2.5017  -1.6261  0.25017   9.4905E-04 -4.0777E-04  1.0329E-03  -23.251
   205  303   1.2508   2.5017  -1.3759  0.25017  -9.1866E-04  7.4272E-04  1.1813E-03  141.045
   206  303   1.2508   2.5017  -1.1258  0.25017  -9.3171E-04  3.8876E-04  1.0096E-03  157.351
   207  303   1.2508   2.5017  -0.8756  0.25017   9.3996E-04 -7.5071E-04  1.2030E-03  -38.613
   208  303   1.2508   2.5017  -0.6254  0.25017   9.6448E-04 -3.5173E-04  1.0266E-03  -20.036
   209  303   1.2508   2.5017  -0.3753  0.25017  -9.4866E-04  7.8228E-04  1.2296E-03  140.490
   210  303   1.2508   2.5017  -0.1251  0.25017  -1.0597E-03  4.8664E-04  1.1661E-03  155.335
   211  303   1.2508   2.5017   0.1251  0.25017   8.1301E-04  7.0015E-05  8.1602E-04    4.922
   212  303   1.2508   2.5017   0.3753  0.25017   9.7359E-04 -2.9940E-04  1.0186E-03  -17.094
   213  303   1.2508   2.5017   0.6254  0.25017  -8.2367E-04 -1.7375E-05  8.2385E-04 -178.792
   214  303   1.2508   2.5017   0.8756  0.25017  -9.5550E-04  3.0097E-04  1.0018E-03  162.516
   215  303   1.2508   2.5017   1.1258  0.25017   8.2837E-04 -1.5143E-05  8.2851E-04   -1.047
   216  303   1.2508   2.5017   1.3759  0.25017   9.4548E-04 -3.0531E-04  9.9355E-04  -17.896
   217  303   1.2508   2.5017   1.6261  0.25017  -8.4002E-04  2.3267E-05  8.4034E-04  178.413
   218  303   1.2508   2.5017   1.8763  0.25017  -9.4498E-04  2.7383E-04  9.8386E-04  163.840
   219  303   1.2508   2.5017   2.1264  0.25017   8.6713E-04 -6.2757E-05  8.6940E-04   -4.139
   220  303   1.2508   2.5017   2.3766  0.25017   9.6163E-04 -2.1186E-04  9.8469E-04  -12.424
   221  304   3.7525   2.5017  -2.3766  0.25017   3.0873E-05 -6.1774E-05  6.9059E-05  -63.446
   222  304   3.7525   2.5017  -2.1264  0.25017   7.2770E-06 -3.9602E-05  4.0265E-05  -79.588
   223  304   3.7525   2.5017  -1.8763  0.25017  -5.9913E-05  7.3478E-05  9.4808E-05  129.193
   224  304   3.7525   2.5017  -1.6261  0.25017  -2.7375E-05  4.8084E-05  5.5330E-05  119.653
   225  304   3.7525   2.5017  -1.3759  0.25017   6.1357E-05 -5.2647E-05  8.0848E-05  -40.631
   226  304   3.7525   2.5017  -1.1258  0.25017   5.2816E-05 -1.1699E-05  5.4096E-05  -12.489
   227  304   3.7525   2.5017  -0.8756  0.25017  -2.3906E-05  9.3056E-05  9.6078E-05  104.408
   228  304   3.7525   2.5017  -0.6254  0.25017  -1.6367E-05  3.9318E-05  4.2588E-05  112.600
   229  304   3.7525   2.5017  -0.3753  0.25017   5.4518E-05 -8.3248E-05  9.9511E-05  -56.780
   230  304   3.7525   2.5017  -0.1251  0.25017   3.8320E-05 -4.5252E-05  5.9297E-05  -49.742
   231  304   3.7525   2.5017   0.1251  0.25017  -4.7791E-05  4.1791E-05  6.3486E-05  138.832
   232  304   3.7525   2.5017   0.3753  0.25017  -5.0077E-05  6.4674E-05  8.1795E-05  127.751
   233  304   3.7525   2.5017   0.6254  0.25017   2.5303E-05 -6.9440E-06  2.6238E-05  -15.346
   234  304   3.7525   2.5017   0.8756  0.25017   3.0341E-05 -3.9948E-05  5.0164E-05  -52.783
   235  304   3.7525   2.5017   1.1258  0.25017  -3.2919E-05  1.1049E-05  3.4724E-05  161.447
   236  304   3.7525   2.5017   1.3759  0.25017  -2.1877E-05  2.4451E-05  3.2809E-05  131.820
   237  304   3.7525   2.5017   1.6261  0.25017   5.8251E-05 -3.7112E-05  6.9069E-05  -32.501
   238  304   3.7525   2.5017   1.8763  0.25017   5.8099E-05 -5.3506E-05  7.8984E-05  -42.644
   239  304   3.7525   2.5017   2.1264  0.25017  -2.5072E-05  8.2785E-06  2.6403E-05  161.727
   240  304   3.7525   2.5017   2.3766  0.25017  -3.7342E-05  2.6763E-05  4.5943E-05  144.371



                                        - - - POWER BUDGET - - -

                                           INPUT POWER   = 6.8916E-04 WATTS
                                           RADIATED POWER= 6.8916E-04 WATTS
                                           STRUCTURE LOSS= 0.0000E+00 WATTS
                                           NETWORK LOSS  = 0.0000E+00 WATTS
                                           EFFICIENCY    = 100.00 PERCENT



                                                - - - RADIATION PATTERNS - - -

  - - ANGLES - -       - DIRECTIVE GAINS -       - - - POLARIZATION - - -    - - - E(THETA) - - -    - - - E(PHI) - - -
  THETA     PHI        VERT.   HOR.    TOTAL      AXIAL     TILT   SENSE     MAGNITUDE    PHASE      MAGNITUDE    PHASE 
 DEGREES  DEGREES       DB      DB      DB        RATIO     DEG.              VOLTS/M    DEGREES      VOLTS/M    DEGREES
    0.00     0.00    -999.99 -999.99 -999.99    0.00000     0.00            0.00000E+00     0.00    0.00000E+00     0.00
    5.00     0.00      -3.53 -999.99   -3.53    0.00000     0.00  LINEAR    1.35385E-01  -165.97    0.00000E+00     0.00
   10.00     0.00       7.30 -999.99    7.30    0.00000     0.00  LINEAR    4.70873E-01  -116.60    0.00000E+00     0.00
   15.00     0.00       8.78 -999.99    8.78    0.00000     0.00  LINEAR    5.58571E-01  -100.71    0.00000E+00     0.00
   20.00     0.00      10.16 -999.99   10.16    0.00000     0.00  LINEAR    6.54764E-01   -24.89    0.00000E+00     0.00
   25.00     0.00      12.36 -999.99   12.36    0.00000     0.00  LINEAR    8.43376E-01   -14.06    0.00000E+00     0.00
   30.00     0.00       7.62 -999.99    7.62    0.00000     0.00  LINEAR    4.88847E-01    26.47    0.00000E+00     0.00
   35.00     0.00       7.69 -999.99    7.69    0.00000     0.00  LINEAR    4.92868E-01    64.82    0.00000E+00     0.00
   40.00     0.00     -19.98 -999.99  -19.98    0.00000     0.00  LINEAR    2.03639E-02   105.16    0.00000E+00     0.00
   45.00     0.00      -1.73 -999.99   -1.73    0.00000     0.00  LINEAR    1.66656E-01   -53.77    0.00000E+00     0.00
   50.00     0.00      -2.12 -999.99   -2.12    0.00000     0.00  LINEAR    1.59334E-01   -22.38    0.00000E+00     0.00
   55.00     0.00      -0.15 -999.99   -0.15    0.00000     0.00  LINEAR    1.99711E-01   178.26    0.00000E+00     0.00
   60.00     0.00       4.20 -999.99    4.20    0.00000     0.00  LINEAR    3.29694E-01  -172.60    0.00000E+00     0.00
   65.00     0.00       0.03 -999.99    0.03    0.00000     0.00  LINEAR    2.03918E-01  -135.91    0.00000E+00     0.00
   70.00     0.00      -7.66 -999.99   -7.66    0.00000     0.00  LINEAR    8.41275E-02    36.99    0.00000E+00     0.00
   75.00     0.00      -0.05 -999.99   -0.05    0.00000     0.00  LINEAR    2.02195E-01    55.31    0.00000E+00     0.00
   80.00     0.00      -1.64 -999.99   -1.64    0.00000     0.00  LINEAR    1.68384E-01   -96.98    0.00000E+00     0.00
   85.00     0.00       6.77 -999.99    6.77    0.00000     0.00  LINEAR    4.43203E-01   -99.95    0.00000E+00     0.00
   90.00     0.00      -0.64 -999.99   -0.64    0.00000     0.00  LINEAR    1.88838E-01   -71.71    0.00000E+00     0.00
    0.00     5.00    -999.99 -999.99 -999.99    0.00000     0.00            0.00000E+00     0.00    0.00000E+00     0.00
    5.00     5.00      -3.56 -999.99   -3.56    0.00000     0.00  LINEAR    1.34914E-01  -166.27    0.00000E+00     0.00
   10.00     5.00       7.11 -999.99    7.11    0.00000     0.00  LINEAR    4.61060E-01  -116.71    0.00000E+00     0.00
   15.00     5.00       8.52 -999.99    8.52    0.00000     0.00  LINEAR    5.41944E-01  -101.23    0.00000E+00     0.00
   20.00     5.00       9.45 -999.99    9.45    0.00000     0.00  LINEAR    6.03341E-01   -25.49    0.00000E+00     0.00
   25.00     5.00      11.46 -999.99   11.46    0.00000     0.00  LINEAR    7.60602E-01   -14.07    0.00000E+00     0.00
   30.00     5.00       6.25 -999.99    6.25    0.00000     0.00  LINEAR    4.17418E-01    24.69    0.00000E+00     0.00
   35.00     5.00       5.84 -999.99    5.84    0.00000     0.00  LINEAR    3.98177E-01    64.55    0.00000E+00     0.00
   40.00     5.00     -20.90 -999.99  -20.90    0.00000     0.00  LINEAR    1.83354E-02   107.41    0.00000E+00     0.00
   45.00     5.00      -4.63 -999.99   -4.63    0.00000     0.00  LINEAR    1.19324E-01   -57.17    0.00000E+00     0.00
   50.00     5.00      -5.61 -999.99   -5.61    0.00000     0.00  LINEAR    1.06618E-01   -23.06    0.00000E+00     0.00
   55.00     5.00      -3.91 -999.99   -3.91    0.00000     0.00  LINEAR    1.29567E-01   179.35    0.00000E+00     0.00
   60.00     5.00      -0.06 -999.99   -0.06    0.00000     0.00  LINEAR    2.01896E-01  -172.85    0.00000E+00     0.00
   65.00     5.00      -5.04 -999.99   -5.04    0.00000     0.00  LINEAR    1.13763E-01  -137.60    0.00000E+00     0.00
   70.00     5.00     -12.76 -999.99  -12.76    0.00000     0.00  LINEAR    4.67691E-02    34.96    0.00000E+00     0.00
   75.00     5.00      -5.87 -999.99   -5.87    0.00000     0.00  LINEAR    1.03451E-01    53.51    0.00000E+00     0.00
   80.00     5.00      -7.20 -999.99   -7.20    0.00000     0.00  LINEAR    8.87379E-02   -99.68    0.00000E+00     0.00
   85.00     5.00       0.89 -999.99    0.89    0.00000     0.00  LINEAR    2.25244E-01  -101.96    0.00000E+00     0.00
   90.00     5.00      -6.50 -999.99   -6.50    0.00000     0.00  LINEAR    9.61476E-02   -73.61    0.00000E+00     0.00
    0.00    10.00    -999.99 -999.99 -999.99    0.00000     0.00            0.00000E+00     0.00    0.00000E+00     0.00
    5.00    10.00      -3.65 -999.99   -3.65    0.00000     0.00  LINEAR    1.33552E-01  -167.16    0.00000E+00     0.00
   10.00    10.00       6.56 -999.99    6.56    0.00000     0.00  LINEAR    4.32486E-01  -117.03    0.00000E+00     0.00
   15.00    10.00       7.69 -999.99    7.69    0.00000     0.00  LINEAR    4.92843E-01  -102.70    0.00000E+00     0.00
   20.00    10.00       7.19 -999.99    7.19    0.00000     0.00  LINEAR    4.65234E-01   -27.47    0.00000E+00     0.00
   25.00    10.00       8.43 -999.99    8.43    0.00000     0.00  LINEAR    5.36250E-01   -13.89    0.00000E+00     0.00
   30.00    10.00       1.49 -999.99    1.49    0.00000     0.00  LINEAR    2.41422E-01    19.75    0.00000E+00     0.00
   35.00    10.00      -1.18 -999.99   -1.18    0.00000     0.00  LINEAR    1.77530E-01    63.78    0.00000E+00     0.00
   40.00    10.00     -23.39 -999.99  -23.39    0.00000     0.00  LINEAR    1.37615E-02   115.28    0.00000E+00     0.00
   45.00    10.00     -19.56 -999.99  -19.56    0.00000     0.00  LINEAR    2.13730E-02   -72.04    0.00000E+00     0.00
   50.00    10.00     -29.72 -999.99  -29.72    0.00000     0.00  LINEAR    6.64086E-03   -39.02    0.00000E+00     0.00
   55.00    10.00     -26.73 -999.99  -26.73    0.00000     0.00  LINEAR    9.37173E-03   -64.14    0.00000E+00     0.00
   60.00    10.00     -14.63 -999.99  -14.63    0.00000     0.00  LINEAR    3.77039E-02   -20.92    0.00000E+00     0.00
   65.00    10.00     -18.38 -999.99  -18.38    0.00000     0.00  LINEAR    2.44914E-02    18.80    0.00000E+00     0.00
   70.00    10.00     -26.32 -999.99  -26.32    0.00000     0.00  LINEAR    9.81700E-03  -147.22    0.00000E+00     0.00
   75.00    10.00     -15.39 -999.99  -15.39    0.00000     0.00  LINEAR    3.45467E-02  -119.65    0.00000E+00     0.00
   80.00    10.00     -18.23 -999.99  -18.23    0.00000     0.00  LINEAR    2.49145E-02    97.55    0.00000E+00     0.00
   85.00    10.00      -8.07 -999.99   -8.07    0.00000     0.00  LINEAR    8.02981E-02    88.55    0.00000E+00     0.00
   90.00    10.00     -15.76 -999.99  -15.76    0.00000     0.00  LINEAR    3.31287E-02   115.56    0.00000E+00     0.00
    0.00    15.00    -999.99 -999.99 -999.99    0.00000     0.00            0.00000E+00     0.00    0.00000E+00     0.00
    5.00    15.00      -3.79 -999.99   -3.79    0.00000     0.00  LINEAR    1.31445E-01  -168.60    0.00000E+00     0.00
   10.00    15.00       5.61 -999.99    5.61    0.00000     0.00  LINEAR    3.87697E-01  -117.60    0.00000E+00     0.00
   15.00    15.00       6.17 -999.99    6.17    0.00000     0.00  LINEAR    4.13724E-01  -104.91    0.00000E+00     0.00
   20.00    15.00       2.87 -999.99    2.87    0.00000     0.00  LINEAR    2.82796E-01   -31.50    0.00000E+00     0.00
   25.00    15.00       1.37 -999.99    1.37    0.00000     0.00  LINEAR    2.37874E-01   -12.33    0.00000E+00     0.00
   30.00    15.00     -13.51 -999.99  -13.51    0.00000     0.00  LINEAR    4.29166E-02    20.58    0.00000E+00     0.00
   35.00    15.00     -18.20 -999.99  -18.20    0.00000     0.00  LINEAR    2.50103E-02  -124.18    0.00000E+00     0.00
   40.00    15.00     -25.89 -999.99  -25.89    0.00000     0.00  LINEAR    1.03133E-02   126.47    0.00000E+00     0.00
   45.00    15.00     -12.42 -999.99  -12.42    0.00000     0.00  LINEAR    4.86235E-02   103.34    0.00000E+00     0.00
   50.00    15.00     -14.71 -999.99  -14.71    0.00000     0.00  LINEAR    3.73643E-02   154.46    0.00000E+00     0.00
   55.00    15.00     -11.76 -999.99  -11.76    0.00000     0.00  LINEAR    5.25198E-02   -13.69    0.00000E+00     0.00
   60.00    15.00      -6.64 -999.99   -6.64    0.00000     0.00  LINEAR    9.46049E-02   -12.54    0.00000E+00     0.00
   65.00    15.00     -15.45 -999.99  -15.45    0.00000     0.00  LINEAR    3.43173E-02     4.34    0.00000E+00     0.00
   70.00    15.00     -27.52 -999.99  -27.52    0.00000     0.00  LINEAR    8.55567E-03  -159.83    0.00000E+00     0.00
   75.00    15.00     -23.68 -999.99  -23.68    0.00000     0.00  LINEAR    1.33013E-02  -121.62    0.00000E+00     0.00
   80.00    15.00     -34.57 -999.99  -34.57    0.00000     0.00  LINEAR    3.79806E-03  -177.87    0.00000E+00     0.00
   85.00    15.00     -27.83 -999.99  -27.83    0.00000     0.00  LINEAR    8.25091E-03   179.82    0.00000E+00     0.00
   90.00    15.00     -31.14 -999.99  -31.14    0.00000     0.00  LINEAR    5.63432E-03  -114.71    0.00000E+00     0.00
    0.00    20.00    -999.99 -999.99 -999.99    0.00000     0.00            0.00000E+00     0.00    0.00000E+00     0.00
    5.00    20.00      -3.96 -999.99   -3.96    0.00000     0.00  LINEAR    1.28802E-01  -170.54    0.00000E+00     0.00
   10.00    20.00       4.23 -999.99    4.23    0.00000     0.00  LINEAR    3.30721E-01  -118.50    0.00000E+00     0.00
   15.00    20.00       3.65 -999.99    3.65    0.00000     0.00  LINEAR    3.09326E-01  -107.66    0.00000E+00     0.00
   20.00    20.00      -5.54 -999.99   -5.54    0.00000     0.00  LINEAR    1.07480E-01   -39.18    0.00000E+00     0.00
   25.00    20.00     -13.60 -999.99  -13.60    0.00000     0.00  LINEAR    4.24813E-02   145.58    0.00000E+00     0.00
   30.00    20.00      -5.32 -999.99   -5.32    0.00000     0.00  LINEAR    1.10207E-01   173.62    0.00000E+00     0.00
   35.00    20.00      -6.63 -999.99   -6.63    0.00000     0.00  LINEAR    9.47474E-02  -125.97    0.00000E+00     0.00
   40.00    20.00     -26.06 -999.99  -26.06    0.00000     0.00  LINEAR    1.01175E-02   122.79    0.00000E+00     0.00
   45.00    20.00     -15.37 -999.99  -15.37    0.00000     0.00  LINEAR    3.46564E-02    93.58    0.00000E+00     0.00
   50.00    20.00     -39.63 -999.99  -39.63    0.00000     0.00  LINEAR    2.12080E-03  -121.94    0.00000E+00     0.00
   55.00    20.00     -14.46 -999.99  -14.46    0.00000     0.00  LINEAR    3.84690E-02  -177.98    0.00000E+00     0.00
   60.00    20.00      -3.08 -999.99   -3.08    0.00000     0.00  LINEAR    1.42652E-01  -179.99    0.00000E+00     0.00
   65.00    20.00      -6.76 -999.99   -6.76    0.00000     0.00  LINEAR    9.33931E-02  -163.54    0.00000E+00     0.00
   70.00    20.00     -11.13 -999.99  -11.13    0.00000     0.00  LINEAR    5.64512E-02   -12.33    0.00000E+00     0.00
   75.00    20.00      -7.77 -999.99   -7.77    0.00000     0.00  LINEAR    8.31237E-02    29.49    0.00000E+00     0.00
   80.00    20.00      -7.03 -999.99   -7.03    0.00000     0.00  LINEAR    9.04847E-02  -120.15    0.00000E+00     0.00
   85.00    20.00       1.96 -999.99    1.96    0.00000     0.00  LINEAR    2.54838E-01  -113.97    0.00000E+00     0.00
   90.00    20.00      -5.08 -999.99   -5.08    0.00000     0.00  LINEAR    1.13285E-01   -87.18    0.00000E+00     0.00
    0.00    25.00    -999.99 -999.99 -999.99    0.00000     0.00            0.00000E+00     0.00    0.00000E+00     0.00
    5.00    25.00      -4.16 -999.99   -4.16    0.00000     0.00  LINEAR    1.25866E-01  -172.89    0.00000E+00     0.00
   10.00    25.00       2.36 -999.99    2.36    0.00000     0.00  LINEAR    2.66706E-01  -119.83    0.00000E+00     0.00
   15.00    25.00      -0.68 -999.99   -0.68    0.00000     0.00  LINEAR    1.87951E-01  -111.14    0.00000E+00     0.00
   20.00    25.00     -18.71 -999.99  -18.71    0.00000     0.00  LINEAR    2.35813E-02   136.84    0.00000E+00     0.00
   25.00    25.00       0.13 -999.99    0.13    0.00000     0.00  LINEAR    2.06349E-01   160.15    0.00000E+00     0.00
   30.00    25.00      -2.11 -999.99   -2.11    0.00000     0.00  LINEAR    1.59386E-01   166.63    0.00000E+00     0.00
   35.00    25.00     -14.99 -999.99  -14.99    0.00000     0.00  LINEAR    3.62049E-02  -140.64    0.00000E+00     0.00
   40.00    25.00     -24.44 -999.99  -24.44    0.00000     0.00  LINEAR    1.21990E-02   105.11    0.00000E+00     0.00
   45.00    25.00      -6.92 -999.99   -6.92    0.00000     0.00  LINEAR    9.16694E-02  -110.11    0.00000E+00     0.00
   50.00    25.00      -9.86 -999.99   -9.86    0.00000     0.00  LINEAR    6.53489E-02   -70.50    0.00000E+00     0.00
   55.00    25.00      -3.48 -999.99   -3.48    0.00000     0.00  LINEAR    1.36113E-01   166.09    0.00000E+00     0.00
   60.00    25.00       6.11 -999.99    6.11    0.00000     0.00  LINEAR    4.10568E-01   175.41    0.00000E+00     0.00
   65.00    25.00       1.06 -999.99    1.06    0.00000     0.00  LINEAR    2.29701E-01  -170.14    0.00000E+00     0.00
   70.00    25.00      -3.10 -999.99   -3.10    0.00000     0.00  LINEAR    1.42249E-01   -28.12    0.00000E+00     0.00
   75.00    25.00      -3.94 -999.99   -3.94    0.00000     0.00  LINEAR    1.29199E-01     1.77    0.00000E+00     0.00
   80.00    25.00      -4.81 -999.99   -4.81    0.00000     0.00  LINEAR    1.16861E-01  -159.21    0.00000E+00     0.00
   85.00    25.00       2.28 -999.99    2.28    0.00000     0.00  LINEAR    2.64169E-01  -142.84    0.00000E+00     0.00
   90.00    25.00      -5.40 -999.99   -5.40    0.00000     0.00  LINEAR    1.09203E-01  -116.37    0.00000E+00     0.00
    0.00    30.00    -999.99 -999.99 -999.99    0.00000     0.00            0.00000E+00     0.00    0.00000E+00     0.00
    5.00    30.00      -4.37 -999.99   -4.37    0.00000     0.00  LINEAR    1.22864E-01  -175.51    0.00000E+00     0.00
   10.00    30.00      -0.08 -999.99   -0.08    0.00000     0.00  LINEAR    2.01347E-01  -121.79    0.00000E+00     0.00
   15.00    30.00     -10.20 -999.99  -10.20    0.00000     0.00  LINEAR    6.28084E-02  -119.49    0.00000E+00     0.00
   20.00    30.00      -5.80 -999.99   -5.80    0.00000     0.00  LINEAR    1.04245E-01   115.94    0.00000E+00     0.00
   25.00    30.00       0.47 -999.99    0.47    0.00000     0.00  LINEAR    2.14683E-01   159.35    0.00000E+00     0.00
   30.00    30.00     -10.49 -999.99  -10.49    0.00000     0.00  LINEAR    6.07748E-02   154.89    0.00000E+00     0.00
   35.00    30.00      -9.60 -999.99   -9.60    0.00000     0.00  LINEAR    6.73131E-02    26.24    0.00000E+00     0.00
   40.00    30.00     -24.50 -999.99  -24.50    0.00000     0.00  LINEAR    1.21064E-02    89.21    0.00000E+00     0.00
   45.00    30.00       2.03 -999.99    2.03    0.00000     0.00  LINEAR    2.56807E-01  -112.34    0.00000E+00     0.00
   50.00    30.00      -3.21 -999.99   -3.21    0.00000     0.00  LINEAR    1.40478E-01   -95.54    0.00000E+00     0.00
   55.00    30.00      -3.95 -999.99   -3.95    0.00000     0.00  LINEAR    1.28966E-01   135.73    0.00000E+00     0.00
   60.00    30.00       4.87 -999.99    4.87    0.00000     0.00  LINEAR    3.56224E-01   168.73    0.00000E+00     0.00
   65.00    30.00      -0.20 -999.99   -0.20    0.00000     0.00  LINEAR    1.98577E-01  -169.91    0.00000E+00     0.00
   70.00    30.00      -4.32 -999.99   -4.32    0.00000     0.00  LINEAR    1.23661E-01   -35.00    0.00000E+00     0.00
   75.00    30.00      -6.93 -999.99   -6.93    0.00000     0.00  LINEAR    9.15315E-02   -12.14    0.00000E+00     0.00
   80.00    30.00      -8.04 -999.99   -8.04    0.00000     0.00  LINEAR    8.05318E-02   168.17    0.00000E+00     0.00
   85.00    30.00      -3.58 -999.99   -3.58    0.00000     0.00  LINEAR    1.34643E-01  -179.74    0.00000E+00     0.00
   90.00    30.00     -12.12 -999.99  -12.12    0.00000     0.00  LINEAR    5.03589E-02  -158.65    0.00000E+00     0.00
    0.00    35.00    -999.99 -999.99 -999.99    0.00000     0.00            0.00000E+00     0.00    0.00000E+00     0.00
    5.00    35.00      -4.58 -999.99   -4.58    0.00000     0.00  LINEAR    1.19974E-01  -178.28    0.00000E+00     0.00
   10.00    35.00      -3.23 -999.99   -3.23    0.00000     0.00  LINEAR    1.40138E-01  -124.67    0.00000E+00     0.00
   15.00    35.00     -11.76 -999.99  -11.76    0.00000     0.00  LINEAR    5.24755E-02    79.61    0.00000E+00     0.00
   20.00    35.00      -2.63 -999.99   -2.63    0.00000     0.00  LINEAR    1.50243E-01    98.25    0.00000E+00     0.00
   25.00    35.00      -6.39 -999.99   -6.39    0.00000     0.00  LINEAR    9.73645E-02   153.96    0.00000E+00     0.00
   30.00    35.00      -1.28 -999.99   -1.28    0.00000     0.00  LINEAR    1.75512E-01   -12.02    0.00000E+00     0.00
   35.00    35.00      -0.43 -999.99   -0.43    0.00000     0.00  LINEAR    1.93543E-01     0.41    0.00000E+00     0.00
   40.00    35.00     -29.29 -999.99  -29.29    0.00000     0.00  LINEAR    6.97245E-03    71.92    0.00000E+00     0.00
   45.00    35.00       3.39 -999.99    3.39    0.00000     0.00  LINEAR    3.00315E-01  -115.27    0.00000E+00     0.00
   50.00    35.00      -1.69 -999.99   -1.69    0.00000     0.00  LINEAR    1.67359E-01  -106.43    0.00000E+00     0.00
   55.00    35.00      -5.62 -999.99   -5.62    0.00000     0.00  LINEAR    1.06430E-01    87.00    0.00000E+00     0.00
   60.00    35.00      -5.10 -999.99   -5.10    0.00000     0.00  LINEAR    1.13062E-01   135.34    0.00000E+00     0.00
   65.00    35.00     -15.76 -999.99  -15.76    0.00000     0.00  LINEAR    3.31318E-02   179.02    0.00000E+00     0.00
   70.00    35.00     -27.83 -999.99  -27.83    0.00000     0.00  LINEAR    8.25543E-03    23.58    0.00000E+00     0.00
   75.00    35.00     -18.78 -999.99  -18.78    0.00000     0.00  LINEAR    2.33886E-02   143.71    0.00000E+00     0.00
   80.00    35.00     -16.11 -999.99  -16.11    0.00000     0.00  LINEAR    3.18246E-02   -19.01    0.00000E+00     0.00
   85.00    35.00      -7.19 -999.99   -7.19    0.00000     0.00  LINEAR    8.88220E-02   -13.85    0.00000E+00     0.00
   90.00    35.00     -14.82 -999.99  -14.82    0.00000     0.00  LINEAR    3.69180E-02    10.84    0.00000E+00     0.00
    0.00    40.00    -999.99 -999.99 -999.99    0.00000     0.00            0.00000E+00     0.00    0.00000E+00     0.00
    5.00    40.00      -4.78 -999.99   -4.78    0.00000     0.00  LINEAR    1.17307E-01   178.96    0.00000E+00     0.00
   10.00    40.00      -7.32 -999.99   -7.32    0.00000     0.00  LINEAR    8.75162E-02  -128.83    0.00000E+00     0.00
   15.00    40.00      -3.47 -999.99   -3.47    0.00000     0.00  LINEAR    1.36260E-01    70.97    0.00000E+00     0.00
   20.00    40.00      -2.11 -999.99   -2.11    0.00000     0.00  LINEAR    1.59379E-01    85.31    0.00000E+00     0.00
   25.00    40.00     -11.28 -999.99  -11.28    0.00000     0.00  LINEAR    5.54947E-02   -37.57    0.00000E+00     0.00
   30.00    40.00       6.53 -999.99    6.53    0.00000     0.00  LINEAR    4.31280E-01   -15.34    0.00000E+00     0.00
   35.00    40.00       4.51 -999.99    4.51    0.00000     0.00  LINEAR    3.41841E-01   -11.98    0.00000E+00     0.00
   40.00    40.00     -45.71 -999.99  -45.71    0.00000     0.00  LINEAR    1.05395E-03    34.42    0.00000E+00     0.00
   45.00    40.00      -0.91 -999.99   -0.91    0.00000     0.00  LINEAR    1.83157E-01  -123.63    0.00000E+00     0.00
   50.00    40.00      -7.60 -999.99   -7.60    0.00000     0.00  LINEAR    8.47233E-02  -109.78    0.00000E+00     0.00
   55.00    40.00     -16.66 -999.99  -16.66    0.00000     0.00  LINEAR    2.98743E-02    45.82    0.00000E+00     0.00
   60.00    40.00     -10.87 -999.99  -10.87    0.00000     0.00  LINEAR    5.81662E-02   -85.49    0.00000E+00     0.00
   65.00    40.00     -12.76 -999.99  -12.76    0.00000     0.00  LINEAR    4.67670E-02   -62.42    0.00000E+00     0.00
   70.00    40.00     -16.83 -999.99  -16.83    0.00000     0.00  LINEAR    2.92971E-02   116.75    0.00000E+00     0.00
   75.00    40.00     -14.83 -999.99  -14.83    0.00000     0.00  LINEAR    3.68815E-02   145.01    0.00000E+00     0.00
   80.00    40.00     -17.37 -999.99  -17.37    0.00000     0.00  LINEAR    2.75274E-02   -30.36    0.00000E+00     0.00
   85.00    40.00     -12.00 -999.99  -12.00    0.00000     0.00  LINEAR    5.10884E-02   -21.16    0.00000E+00     0.00
   90.00    40.00     -21.44 -999.99  -21.44    0.00000     0.00  LINEAR    1.72305E-02     9.73    0.00000E+00     0.00
    0.00    45.00    -999.99 -999.99 -999.99    0.00000     0.00            0.00000E+00     0.00    0.00000E+00     0.00
    5.00    45.00      -4.95 -999.99   -4.95    0.00000     0.00  LINEAR    1.14909E-01   176.36    0.00000E+00     0.00
   10.00    45.00     -12.90 -999.99  -12.90    0.00000     0.00  LINEAR    4.60374E-02  -134.47    0.00000E+00     0.00
   15.00    45.00      -1.04 -999.99   -1.04    0.00000     0.00  LINEAR    1.80314E-01    68.01    0.00000E+00     0.00
   20.00    45.00      -5.54 -999.99   -5.54    0.00000     0.00  LINEAR    1.07365E-01    79.62    0.00000E+00     0.00
   25.00    45.00      -0.33 -999.99   -0.33    0.00000     0.00  LINEAR    1.95700E-01   -65.75    0.00000E+00     0.00
   30.00    45.00       8.67 -999.99    8.67    0.00000     0.00  LINEAR    5.51667E-01   -20.43    0.00000E+00     0.00
   35.00    45.00       6.24 -999.99    6.24    0.00000     0.00  LINEAR    4.17003E-01   -14.74    0.00000E+00     0.00
   40.00    45.00     -37.68 -999.99  -37.68    0.00000     0.00  LINEAR    2.65549E-03  -167.99    0.00000E+00     0.00
   45.00    45.00     -10.45 -999.99  -10.45    0.00000     0.00  LINEAR    6.10499E-02  -153.07    0.00000E+00     0.00
   50.00    45.00     -27.25 -999.99  -27.25    0.00000     0.00  LINEAR    8.82519E-03    46.22    0.00000E+00     0.00
   55.00    45.00     -10.97 -999.99  -10.97    0.00000     0.00  LINEAR    5.75078E-02  -101.35    0.00000E+00     0.00
   60.00    45.00      -2.20 -999.99   -2.20    0.00000     0.00  LINEAR    1.57870E-01  -102.59    0.00000E+00     0.00
   65.00    45.00     -10.73 -999.99  -10.73    0.00000     0.00  LINEAR    5.90846E-02   -98.52    0.00000E+00     0.00
   70.00    45.00     -23.89 -999.99  -23.89    0.00000     0.00  LINEAR    1.29844E-02  -150.12    0.00000E+00     0.00
   75.00    45.00     -17.77 -999.99  -17.77    0.00000     0.00  LINEAR    2.62833E-02   -97.53    0.00000E+00     0.00
   80.00    45.00     -14.04 -999.99  -14.04    0.00000     0.00  LINEAR    4.03813E-02   121.83    0.00000E+00     0.00
   85.00    45.00      -4.81 -999.99   -4.81    0.00000     0.00  LINEAR    1.16862E-01   131.27    0.00000E+00     0.00
   90.00    45.00     -11.53 -999.99  -11.53    0.00000     0.00  LINEAR    5.39240E-02   154.88    0.00000E+00     0.00
    0.00    50.00    -999.99 -999.99 -999.99    0.00000     0.00            0.00000E+00     0.00    0.00000E+00     0.00
    5.00    50.00      -5.12 -999.99   -5.12    0.00000     0.00  LINEAR    1.12775E-01   174.02    0.00000E+00     0.00
   10.00    50.00     -22.19 -999.99  -22.19    0.00000     0.00  LINEAR    1.57951E-02  -138.94    0.00000E+00     0.00
   15.00    50.00      -0.92 -999.99   -0.92    0.00000     0.00  LINEAR    1.82919E-01    65.04    0.00000E+00     0.00
   20.00    50.00     -20.93 -999.99  -20.93    0.00000     0.00  LINEAR    1.82585E-02  -150.21    0.00000E+00     0.00
   25.00    50.00       6.06 -999.99    6.06    0.00000     0.00  LINEAR    4.08367E-01   -93.10    0.00000E+00     0.00
   30.00    50.00       7.75 -999.99    7.75    0.00000     0.00  LINEAR    4.96375E-01   -39.09    0.00000E+00     0.00
   35.00    50.00       4.67 -999.99    4.67    0.00000     0.00  LINEAR    3.48022E-01   -16.82    0.00000E+00     0.00
   40.00    50.00     -31.91 -999.99  -31.91    0.00000     0.00  LINEAR    5.15870E-03   172.40    0.00000E+00     0.00
   45.00    50.00     -28.77 -999.99  -28.77    0.00000     0.00  LINEAR    7.40578E-03   -51.06    0.00000E+00     0.00
   50.00    50.00     -17.13 -999.99  -17.13    0.00000     0.00  LINEAR    2.82870E-02    15.49    0.00000E+00     0.00
   55.00    50.00     -15.77 -999.99  -15.77    0.00000     0.00  LINEAR    3.30640E-02  -123.10    0.00000E+00     0.00
   60.00    50.00     -23.26 -999.99  -23.26    0.00000     0.00  LINEAR    1.39703E-02     9.59    0.00000E+00     0.00
[...]
   40.00   315.00     -37.68 -999.99  -37.68    0.00000     0.00  LINEAR    2.65549E-03  -167.99    0.00000E+00     0.00
   45.00   315.00     -10.45 -999.99  -10.45    0.00000     0.00  LINEAR    6.10499E-02  -153.07    0.00000E+00     0.00
   50.00   315.00     -27.25 -999.99  -27.25    0.00000     0.00  LINEAR    8.82519E-03    46.22    0.00000E+00     0.00
   55.00   315.00     -10.97 -999.99  -10.97    0.00000     0.00  LINEAR    5.75078E-02  -101.35    0.00000E+00     0.00
   60.00   315.00      -2.20 -999.99   -2.20    0.00000     0.00  LINEAR    1.57870E-01  -102.59    0.00000E+00     0.00
   65.00   315.00     -10.73 -999.99  -10.73    0.00000     0.00  LINEAR    5.90846E-02   -98.52    0.00000E+00     0.00
   70.00   315.00     -23.89 -999.99  -23.89    0.00000     0.00  LINEAR    1.29844E-02  -150.12    0.00000E+00     0.00
   75.00   315.00     -17.77 -999.99  -17.77    0.00000     0.00  LINEAR    2.62833E-02   -97.53    0.00000E+00     0.00
   80.00   315.00     -14.04 -999.99  -14.04    0.00000     0.00  LINEAR    4.03813E-02   121.83    0.00000E+00     0.00
   85.00   315.00      -4.81 -999.99   -4.81    0.00000     0.00  LINEAR    1.16862E-01   131.27    0.00000E+00     0.00
   90.00   315.00     -11.53 -999.99  -11.53    0.00000     0.00  LINEAR    5.39240E-02   154.88    0.00000E+00     0.00
    0.00   320.00    -999.99 -999.99 -999.99    0.00000     0.00            0.00000E+00     0.00    0.00000E+00     0.00
    5.00   320.00      -4.78 -999.99   -4.78    0.00000     0.00  LINEAR    1.17307E-01   178.96    0.00000E+00     0.00
   10.00   320.00      -7.32 -999.99   -7.32    0.00000     0.00  LINEAR    8.75162E-02  -128.83    0.00000E+00     0.00
   15.00   320.00      -3.47 -999.99   -3.47    0.00000     0.00  LINEAR    1.36260E-01    70.97    0.00000E+00     0.00
   20.00   320.00      -2.11 -999.99   -2.11    0.00000     0.00  LINEAR    1.59379E-01    85.31    0.00000E+00     0.00
   25.00   320.00     -11.28 -999.99  -11.28    0.00000     0.00  LINEAR    5.54947E-02   -37.57    0.00000E+00     0.00
   30.00   320.00       6.53 -999.99    6.53    0.00000     0.00  LINEAR    4.31280E-01   -15.34    0.00000E+00     0.00
   35.00   320.00       4.51 -999.99    4.51    0.00000     0.00  LINEAR    3.41841E-01   -11.98    0.00000E+00     0.00
   40.00   320.00     -45.71 -999.99  -45.71    0.00000     0.00  LINEAR    1.05395E-03    34.42    0.00000E+00     0.00
   45.00   320.00      -0.91 -999.99   -0.91    0.00000     0.00  LINEAR    1.83157E-01  -123.63    0.00000E+00     0.00
   50.00   320.00      -7.60 -999.99   -7.60    0.00000     0.00  LINEAR    8.47233E-02  -109.78    0.00000E+00     0.00
   55.00   320.00     -16.66 -999.99  -16.66    0.00000     0.00  LINEAR    2.98743E-02    45.82    0.00000E+00     0.00
   60.00   320.00     -10.87 -999.99  -10.87    0.00000     0.00  LINEAR    5.81662E-02   -85.49    0.00000E+00     0.00
   65.00   320.00     -12.76 -999.99  -12.76    0.00000     0.00  LINEAR    4.67670E-02   -62.42    0.00000E+00     0.00
   70.00   320.00     -16.83 -999.99  -16.83    0.00000     0.00  LINEAR    2.92971E-02   116.75    0.00000E+00     0.00
   75.00   320.00     -14.83 -999.99  -14.83    0.00000     0.00  LINEAR    3.68815E-02   145.01    0.00000E+00     0.00
   80.00   320.00     -17.37 -999.99  -17.37    0.00000     0.00  LINEAR    2.75274E-02   -30.36    0.00000E+00     0.00
   85.00   320.00     -12.00 -999.99  -12.00    0.00000     0.00  LINEAR    5.10884E-02   -21.16    0.00000E+00     0.00
   90.00   320.00     -21.44 -999.99  -21.44    0.00000     0.00  LINEAR    1.72305E-02     9.73    0.00000E+00     0.00
    0.00   325.00    -999.99 -999.99 -999.99    0.00000     0.00            0.00000E+00     0.00    0.00000E+00     0.00
    5.00   325.00      -4.58 -999.99   -4.58    0.00000     0.00  LINEAR    1.19974E-01  -178.28    0.00000E+00     0.00
   10.00   325.00      -3.23 -999.99   -3.23    0.00000     0.00  LINEAR    1.40138E-01  -124.67    0.00000E+00     0.00
   15.00   325.00     -11.76 -999.99  -11.76    0.00000     0.00  LINEAR    5.24755E-02    79.61    0.00000E+00     0.00
   20.00   325.00      -2.63 -999.99   -2.63    0.00000     0.00  LINEAR    1.50243E-01    98.25    0.00000E+00     0.00
   25.00   325.00      -6.39 -999.99   -6.39    0.00000     0.00  LINEAR    9.73645E-02   153.96    0.00000E+00     0.00
   30.00   325.00      -1.28 -999.99   -1.28    0.00000     0.00  LINEAR    1.75512E-01   -12.02    0.00000E+00     0.00
   35.00   325.00      -0.43 -999.99   -0.43    0.00000     0.00  LINEAR    1.93543E-01     0.41    0.00000E+00     0.00
   40.00   325.00     -29.29 -999.99  -29.29    0.00000     0.00  LINEAR    6.97245E-03    71.92    0.00000E+00     0.00
   45.00   325.00       3.39 -999.99    3.39    0.00000     0.00  LINEAR    3.00315E-01  -115.27    0.00000E+00     0.00
   50.00   325.00      -1.69 -999.99   -1.69    0.00000     0.00  LINEAR    1.67359E-01  -106.43    0.00000E+00     0.00
   55.00   325.00      -5.62 -999.99   -5.62    0.00000     0.00  LINEAR    1.06430E-01    87.00    0.00000E+00     0.00
   60.00   325.00      -5.10 -999.99   -5.10    0.00000     0.00  LINEAR    1.13062E-01   135.34    0.00000E+00     0.00
   65.00   325.00     -15.76 -999.99  -15.76    0.00000     0.00  LINEAR    3.31318E-02   179.02    0.00000E+00     0.00
   70.00   325.00     -27.83 -999.99  -27.83    0.00000     0.00  LINEAR    8.25543E-03    23.58    0.00000E+00     0.00
   75.00   325.00     -18.78 -999.99  -18.78    0.00000     0.00  LINEAR    2.33886E-02   143.71    0.00000E+00     0.00
   80.00   325.00     -16.11 -999.99  -16.11    0.00000     0.00  LINEAR    3.18246E-02   -19.01    0.00000E+00     0.00
   85.00   325.00      -7.19 -999.99   -7.19    0.00000     0.00  LINEAR    8.88220E-02   -13.85    0.00000E+00     0.00
   90.00   325.00     -14.82 -999.99  -14.82    0.00000     0.00  LINEAR    3.69180E-02    10.84    0.00000E+00     0.00
    0.00   330.00    -999.99 -999.99 -999.99    0.00000     0.00            0.00000E+00     0.00    0.00000E+00     0.00
    5.00   330.00      -4.37 -999.99   -4.37    0.00000     0.00  LINEAR    1.22864E-01  -175.51    0.00000E+00     0.00
   10.00   330.00      -0.08 -999.99   -0.08    0.00000     0.00  LINEAR    2.01347E-01  -121.79    0.00000E+00     0.00
   15.00   330.00     -10.20 -999.99  -10.20    0.00000     0.00  LINEAR    6.28084E-02  -119.49    0.00000E+00     0.00
   20.00   330.00      -5.80 -999.99   -5.80    0.00000     0.00  LINEAR    1.04245E-01   115.94    0.00000E+00     0.00
   25.00   330.00       0.47 -999.99    0.47    0.00000     0.00  LINEAR    2.14683E-01   159.35    0.00000E+00     0.00
   30.00   330.00     -10.49 -999.99  -10.49    0.00000     0.00  LINEAR    6.07748E-02   154.89    0.00000E+00     0.00
   35.00   330.00      -9.60 -999.99   -9.60    0.00000     0.00  LINEAR    6.73131E-02    26.24    0.00000E+00     0.00
   40.00   330.00     -24.50 -999.99  -24.50    0.00000     0.00  LINEAR    1.21064E-02    89.21    0.00000E+00     0.00
   45.00   330.00       2.03 -999.99    2.03    0.00000     0.00  LINEAR    2.56807E-01  -112.34    0.00000E+00     0.00
   50.00   330.00      -3.21 -999.99   -3.21    0.00000     0.00  LINEAR    1.40478E-01   -95.54    0.00000E+00     0.00
   55.00   330.00      -3.95 -999.99   -3.95    0.00000     0.00  LINEAR    1.28966E-01   135.73    0.00000E+00     0.00
   60.00   330.00       4.87 -999.99    4.87    0.00000     0.00  LINEAR    3.56224E-01   168.73    0.00000E+00     0.00
   65.00   330.00      -0.20 -999.99   -0.20    0.00000     0.00  LINEAR    1.98577E-01  -169.91    0.00000E+00     0.00
   70.00   330.00      -4.32 -999.99   -4.32    0.00000     0.00  LINEAR    1.23661E-01   -35.00    0.00000E+00     0.00
   75.00   330.00      -6.93 -999.99   -6.93    0.00000     0.00  LINEAR    9.15315E-02   -12.14    0.00000E+00     0.00
   80.00   330.00      -8.04 -999.99   -8.04    0.00000     0.00  LINEAR    8.05318E-02   168.17    0.00000E+00     0.00
   85.00   330.00      -3.58 -999.99   -3.58    0.00000     0.00  LINEAR    1.34643E-01  -179.74    0.00000E+00     0.00
   90.00   330.00     -12.12 -999.99  -12.12    0.00000     0.00  LINEAR    5.03589E-02  -158.65    0.00000E+00     0.00
    0.00   335.00    -999.99 -999.99 -999.99    0.00000     0.00            0.00000E+00     0.00    0.00000E+00     0.00
    5.00   335.00      -4.16 -999.99   -4.16    0.00000     0.00  LINEAR    1.25866E-01  -172.89    0.00000E+00     0.00
   10.00   335.00       2.36 -999.99    2.36    0.00000     0.00  LINEAR    2.66706E-01  -119.83    0.00000E+00     0.00
   15.00   335.00      -0.68 -999.99   -0.68    0.00000     0.00  LINEAR    1.87951E-01  -111.14    0.00000E+00     0.00
   20.00   335.00     -18.71 -999.99  -18.71    0.00000     0.00  LINEAR    2.35813E-02   136.84    0.00000E+00     0.00
   25.00   335.00       0.13 -999.99    0.13    0.00000     0.00  LINEAR    2.06349E-01   160.15    0.00000E+00     0.00
   30.00   335.00      -2.11 -999.99   -2.11    0.00000     0.00  LINEAR    1.59386E-01   166.63    0.00000E+00     0.00
   35.00   335.00     -14.99 -999.99  -14.99    0.00000     0.00  LINEAR    3.62049E-02  -140.64    0.00000E+00     0.00
   40.00   335.00     -24.44 -999.99  -24.44    0.00000     0.00  LINEAR    1.21990E-02   105.11    0.00000E+00     0.00
   45.00   335.00      -6.92 -999.99   -6.92    0.00000     0.00  LINEAR    9.16694E-02  -110.11    0.00000E+00     0.00
   50.00   335.00      -9.86 -999.99   -9.86    0.00000     0.00  LINEAR    6.53489E-02   -70.50    0.00000E+00     0.00
   55.00   335.00      -3.48 -999.99   -3.48    0.00000     0.00  LINEAR    1.36113E-01   166.09    0.00000E+00     0.00
   60.00   335.00       6.11 -999.99    6.11    0.00000     0.00  LINEAR    4.10568E-01   175.41    0.00000E+00     0.00
   65.00   335.00       1.06 -999.99    1.06    0.00000     0.00  LINEAR    2.29701E-01  -170.14    0.00000E+00     0.00
   70.00   335.00      -3.10 -999.99   -3.10    0.00000     0.00  LINEAR    1.42249E-01   -28.12    0.00000E+00     0.00
   75.00   335.00      -3.94 -999.99   -3.94    0.00000     0.00  LINEAR    1.29199E-01     1.77    0.00000E+00     0.00
   80.00   335.00      -4.81 -999.99   -4.81    0.00000     0.00  LINEAR    1.16861E-01  -159.21    0.00000E+00     0.00
   85.00   335.00       2.28 -999.99    2.28    0.00000     0.00  LINEAR    2.64169E-01  -142.84    0.00000E+00     0.00
   90.00   335.00      -5.40 -999.99   -5.40    0.00000     0.00  LINEAR    1.09203E-01  -116.37    0.00000E+00     0.00
    0.00   340.00    -999.99 -999.99 -999.99    0.00000     0.00            0.00000E+00     0.00    0.00000E+00     0.00
    5.00   340.00      -3.96 -999.99   -3.96    0.00000     0.00  LINEAR    1.28802E-01  -170.54    0.00000E+00     0.00
   10.00   340.00       4.23 -999.99    4.23    0.00000     0.00  LINEAR    3.30721E-01  -118.50    0.00000E+00     0.00
   15.00   340.00       3.65 -999.99    3.65    0.00000     0.00  LINEAR    3.09326E-01  -107.66    0.00000E+00     0.00
   20.00   340.00      -5.54 -999.99   -5.54    0.00000     0.00  LINEAR    1.07480E-01   -39.18    0.00000E+00     0.00
   25.00   340.00     -13.60 -999.99  -13.60    0.00000     0.00  LINEAR    4.24813E-02   145.58    0.00000E+00     0.00
   30.00   340.00      -5.32 -999.99   -5.32    0.00000     0.00  LINEAR    1.10207E-01   173.62    0.00000E+00     0.00
   35.00   340.00      -6.63 -999.99   -6.63    0.00000     0.00  LINEAR    9.47474E-02  -125.97    0.00000E+00     0.00
   40.00   340.00     -26.06 -999.99  -26.06    0.00000     0.00  LINEAR    1.01175E-02   122.79    0.00000E+00     0.00
   45.00   340.00     -15.37 -999.99  -15.37    0.00000     0.00  LINEAR    3.46564E-02    93.58    0.00000E+00     0.00
   50.00   340.00     -39.63 -999.99  -39.63    0.00000     0.00  LINEAR    2.12080E-03  -121.94    0.00000E+00     0.00
   55.00   340.00     -14.46 -999.99  -14.46    0.00000     0.00  LINEAR    3.84690E-02  -177.98    0.00000E+00     0.00
   60.00   340.00      -3.08 -999.99   -3.08    0.00000     0.00  LINEAR    1.42652E-01  -179.99    0.00000E+00     0.00
   65.00   340.00      -6.76 -999.99   -6.76    0.00000     0.00  LINEAR    9.33931E-02  -163.54    0.00000E+00     0.00
   70.00   340.00     -11.13 -999.99  -11.13    0.00000     0.00  LINEAR    5.64512E-02   -12.33    0.00000E+00     0.00
   75.00   340.00      -7.77 -999.99   -7.77    0.00000     0.00  LINEAR    8.31237E-02    29.49    0.00000E+00     0.00
   80.00   340.00      -7.03 -999.99   -7.03    0.00000     0.00  LINEAR    9.04847E-02  -120.15    0.00000E+00     0.00
   85.00   340.00       1.96 -999.99    1.96    0.00000     0.00  LINEAR    2.54838E-01  -113.97    0.00000E+00     0.00
   90.00   340.00      -5.08 -999.99   -5.08    0.00000     0.00  LINEAR    1.13285E-01   -87.18    0.00000E+00     0.00
    0.00   345.00    -999.99 -999.99 -999.99    0.00000     0.00            0.00000E+00     0.00    0.00000E+00     0.00
    5.00   345.00      -3.79 -999.99   -3.79    0.00000     0.00  LINEAR    1.31445E-01  -168.60    0.00000E+00     0.00
   10.00   345.00       5.61 -999.99    5.61    0.00000     0.00  LINEAR    3.87697E-01  -117.60    0.00000E+00     0.00
   15.00   345.00       6.17 -999.99    6.17    0.00000     0.00  LINEAR    4.13724E-01  -104.91    0.00000E+00     0.00
   20.00   345.00       2.87 -999.99    2.87    0.00000     0.00  LINEAR    2.82796E-01   -31.50    0.00000E+00     0.00
   25.00   345.00       1.37 -999.99    1.37    0.00000     0.00  LINEAR    2.37874E-01   -12.33    0.00000E+00     0.00
   30.00   345.00     -13.51 -999.99  -13.51    0.00000     0.00  LINEAR    4.29166E-02    20.58    0.00000E+00     0.00
   35.00   345.00     -18.20 -999.99  -18.20    0.00000     0.00  LINEAR    2.50103E-02  -124.18    0.00000E+00     0.00
   40.00   345.00     -25.89 -999.99  -25.89    0.00000     0.00  LINEAR    1.03133E-02   126.47    0.00000E+00     0.00
   45.00   345.00     -12.42 -999.99  -12.42    0.00000     0.00  LINEAR    4.86235E-02   103.34    0.00000E+00     0.00
   50.00   345.00     -14.71 -999.99  -14.71    0.00000     0.00  LINEAR    3.73643E-02   154.46    0.00000E+00     0.00
   55.00   345.00     -11.76 -999.99  -11.76    0.00000     0.00  LINEAR    5.25198E-02   -13.69    0.00000E+00     0.00
   60.00   345.00      -6.64 -999.99   -6.64    0.00000     0.00  LINEAR    9.46049E-02   -12.54    0.00000E+00     0.00
   65.00   345.00     -15.45 -999.99  -15.45    0.00000     0.00  LINEAR    3.43173E-02     4.34    0.00000E+00     0.00
   70.00   345.00     -27.52 -999.99  -27.52    0.00000     0.00  LINEAR    8.55567E-03  -159.83    0.00000E+00     0.00
   75.00   345.00     -23.68 -999.99  -23.68    0.00000     0.00  LINEAR    1.33013E-02  -121.62    0.00000E+00     0.00
   80.00   345.00     -34.57 -999.99  -34.57    0.00000     0.00  LINEAR    3.79806E-03  -177.87    0.00000E+00     0.00
   85.00   345.00     -27.83 -999.99  -27.83    0.00000     0.00  LINEAR    8.25091E-03   179.82    0.00000E+00     0.00
   90.00   345.00     -31.14 -999.99  -31.14    0.00000     0.00  LINEAR    5.63432E-03  -114.71    0.00000E+00     0.00
    0.00   350.00    -999.99 -999.99 -999.99    0.00000     0.00            0.00000E+00     0.00    0.00000E+00     0.00
    5.00   350.00      -3.65 -999.99   -3.65    0.00000     0.00  LINEAR    1.33552E-01  -167.16    0.00000E+00     0.00
   10.00   350.00       6.56 -999.99    6.56    0.00000     0.00  LINEAR    4.32486E-01  -117.03    0.00000E+00     0.00
   15.00   350.00       7.69 -999.99    7.69    0.00000     0.00  LINEAR    4.92843E-01  -102.70    0.00000E+00     0.00
   20.00   350.00       7.19 -999.99    7.19    0.00000     0.00  LINEAR    4.65234E-01   -27.47    0.00000E+00     0.00
   25.00   350.00       8.43 -999.99    8.43    0.00000     0.00  LINEAR    5.36250E-01   -13.89    0.00000E+00     0.00
   30.00   350.00       1.49 -999.99    1.49    0.00000     0.00  LINEAR    2.41422E-01    19.75    0.00000E+00     0.00
   35.00   350.00      -1.18 -999.99   -1.18    0.00000     0.00  LINEAR    1.77530E-01    63.78    0.00000E+00     0.00
   40.00   350.00     -23.39 -999.99  -23.39    0.00000     0.00  LINEAR    1.37615E-02   115.28    0.00000E+00     0.00
   45.00   350.00     -19.56 -999.99  -19.56    0.00000     0.00  LINEAR    2.13730E-02   -72.04    0.00000E+00     0.00
   50.00   350.00     -29.72 -999.99  -29.72    0.00000     0.00  LINEAR    6.64086E-03   -39.02    0.00000E+00     0.00
   55.00   350.00     -26.73 -999.99  -26.73    0.00000     0.00  LINEAR    9.37173E-03   -64.14    0.00000E+00     0.00
   60.00   350.00     -14.63 -999.99  -14.63    0.00000     0.00  LINEAR    3.77039E-02   -20.92    0.00000E+00     0.00
   65.00   350.00     -18.38 -999.99  -18.38    0.00000     0.00  LINEAR    2.44914E-02    18.80    0.00000E+00     0.00
   70.00   350.00     -26.32 -999.99  -26.32    0.00000     0.00  LINEAR    9.81700E-03  -147.22    0.00000E+00     0.00
   75.00   350.00     -15.39 -999.99  -15.39    0.00000     0.00  LINEAR    3.45467E-02  -119.65    0.00000E+00     0.00
   80.00   350.00     -18.23 -999.99  -18.23    0.00000     0.00  LINEAR    2.49145E-02    97.55    0.00000E+00     0.00
   85.00   350.00      -8.07 -999.99   -8.07    0.00000     0.00  LINEAR    8.02981E-02    88.55    0.00000E+00     0.00
   90.00   350.00     -15.76 -999.99  -15.76    0.00000     0.00  LINEAR    3.31287E-02   115.56    0.00000E+00     0.00
    0.00   355.00    -999.99 -999.99 -999.99    0.00000     0.00            0.00000E+00     0.00    0.00000E+00     0.00
    5.00   355.00      -3.56 -999.99   -3.56    0.00000     0.00  LINEAR    1.34914E-01  -166.27    0.00000E+00     0.00
   10.00   355.00       7.11 -999.99    7.11    0.00000     0.00  LINEAR    4.61060E-01  -116.71    0.00000E+00     0.00
   15.00   355.00       8.52 -999.99    8.52    0.00000     0.00  LINEAR    5.41944E-01  -101.23    0.00000E+00     0.00
   20.00   355.00       9.45 -999.99    9.45    0.00000     0.00  LINEAR    6.03341E-01   -25.49    0.00000E+00     0.00
   25.00   355.00      11.46 -999.99   11.46    0.00000     0.00  LINEAR    7.60602E-01   -14.07    0.00000E+00     0.00
   30.00   355.00       6.25 -999.99    6.25    0.00000     0.00  LINEAR    4.17418E-01    24.69    0.00000E+00     0.00
   35.00   355.00       5.84 -999.99    5.84    0.00000     0.00  LINEAR    3.98177E-01    64.55    0.00000E+00     0.00
   40.00   355.00     -20.90 -999.99  -20.90    0.00000     0.00  LINEAR    1.83354E-02   107.41    0.00000E+00     0.00
   45.00   355.00      -4.63 -999.99   -4.63    0.00000     0.00  LINEAR    1.19324E-01   -57.17    0.00000E+00     0.00
   50.00   355.00      -5.61 -999.99   -5.61    0.00000     0.00  LINEAR    1.06618E-01   -23.06    0.00000E+00     0.00
   55.00   355.00      -3.91 -999.99   -3.91    0.00000     0.00  LINEAR    1.29567E-01   179.35    0.00000E+00     0.00
   60.00   355.00      -0.06 -999.99   -0.06    0.00000     0.00  LINEAR    2.01896E-01  -172.85    0.00000E+00     0.00
   65.00   355.00      -5.04 -999.99   -5.04    0.00000     0.00  LINEAR    1.13763E-01  -137.60    0.00000E+00     0.00
   70.00   355.00     -12.76 -999.99  -12.76    0.00000     0.00  LINEAR    4.67691E-02    34.96    0.00000E+00     0.00
   75.00   355.00      -5.87 -999.99   -5.87    0.00000     0.00  LINEAR    1.03451E-01    53.51    0.00000E+00     0.00
   80.00   355.00      -7.20 -999.99   -7.20    0.00000     0.00  LINEAR    8.87379E-02   -99.68    0.00000E+00     0.00
   85.00   355.00       0.89 -999.99    0.89    0.00000     0.00  LINEAR    2.25244E-01  -101.96    0.00000E+00     0.00
   90.00   355.00      -6.50 -999.99   -6.50    0.00000     0.00  LINEAR    9.61476E-02   -73.61    0.00000E+00     0.00






 ***** DATA CARD NO. 16   EN   0     0     0     0  0.00000E+00  0.00000E+00  0.00000E+00  0.00000E+00  0.00000E+00  0.00000E+00

 RUN TIME =     0.156
