1



                                 *********************************************

                                    NUMERICAL ELECTROMAGNETICS CODE (NEC-2D)

                                 *********************************************




                                     - - - - COMMENTS - - - -


                                                                                                     
                                                                                                     




                                 - - - STRUCTURE SPECIFICATION - - -

                                     COORDINATES MUST BE INPUT IN
                                     METERS OR BE SCALED TO METERS
                                     BEFORE STRUCTURE INPUT IS ENDED


  WIRE                                                                               NO. OF    FIRST  LAST     TAG
  NO.        X1         Y1         Z1          X2         Y2         Z2      RADIUS   SEG.     SEG.   SEG.     NO.
     1   -7.50000   -5.00000   -5.00000    -7.50000   -5.00000    5.00000    0.00100     20        1    20     101
     2   -2.50000   -5.00000   -5.00000    -2.50000   -5.00000    5.00000    0.00100     20       21    40     102
     3    2.50000   -5.00000   -5.00000     2.50000   -5.00000    5.00000    0.00100     20       41    60     103
     4    7.50000   -5.00000   -5.00000     7.50000   -5.00000    5.00000    0.00100     20       61    80     104
     5   -7.50000    0.00000   -5.00000    -7.50000    0.00000    5.00000    0.00100     20       81   100     201
     6   -2.50000    0.00000   -5.00000    -2.50000    0.00000    5.00000    0.00100     20      101   120     202
     7    2.50000    0.00000   -5.00000     2.50000    0.00000    5.00000    0.00100     20      121   140     203
     8    7.50000    0.00000   -5.00000     7.50000    0.00000    5.00000    0.00100     20      141   160     204
     9   -7.50000    5.00000   -5.00000    -7.50000    5.00000    5.00000    0.00100     20      161   180     301
    10   -2.50000    5.00000   -5.00000    -2.50000    5.00000    5.00000    0.00100     20      181   200     302
    11    2.50000    5.00000   -5.00000     2.50000    5.00000    5.00000    0.00100     20      201   220     303
    12    7.50000    5.00000   -5.00000     7.50000    5.00000    5.00000    0.00100     20      221   240     304

   TOTAL SEGMENTS USED=  240     NO. SEG. IN A SYMMETRIC CELL=  240     SYMMETRY FLAG=  0


         - MULTIPLE WIRE JUNCTIONS -
 JUNCTION    SEGMENTS  (- FOR END 1, + FOR END 2)
  NONE




                                 - - - - SEGMENTATION DATA - - - -

                                        COORDINATES IN METERS

                         I+ AND I- INDICATE THE SEGMENTS BEFORE AND AFTER I


  SEG.   COORDINATES OF SEG. CENTER     SEG.     ORIENTATION ANGLES    WIRE    CONNECTION DATA   TAG
  NO.       X         Y         Z       LENGTH     ALPHA     BETA      RADIUS    I-   I    I+    NO.
     1  -7.50000  -5.00000  -4.75000   0.50000   90.00000   0.00000   0.00100     0    1    2    101
     2  -7.50000  -5.00000  -4.25000   0.50000   90.00000   0.00000   0.00100     1    2    3    101
     3  -7.50000  -5.00000  -3.75000   0.50000   90.00000   0.00000   0.00100     2    3    4    101
     4  -7.50000  -5.00000  -3.25000   0.50000   90.00000   0.00000   0.00100     3    4    5    101
     5  -7.50000  -5.00000  -2.75000   0.50000   90.00000   0.00000   0.00100     4    5    6    101
     6  -7.50000  -5.00000  -2.25000   0.50000   90.00000   0.00000   0.00100     5    6    7    101
     7  -7.50000  -5.00000  -1.75000   0.50000   90.00000   0.00000   0.00100     6    7    8    101
     8  -7.50000  -5.00000  -1.25000   0.50000   90.00000   0.00000   0.00100     7    8    9    101
     9  -7.50000  -5.00000  -0.75000   0.50000   90.00000   0.00000   0.00100     8    9   10    101
    10  -7.50000  -5.00000  -0.25000   0.50000   90.00000   0.00000   0.00100     9   10   11    101
    11  -7.50000  -5.00000   0.25000   0.50000   90.00000   0.00000   0.00100    10   11   12    101
    12  -7.50000  -5.00000   0.75000   0.50000   90.00000   0.00000   0.00100    11   12   13    101
    13  -7.50000  -5.00000   1.25000   0.50000   90.00000   0.00000   0.00100    12   13   14    101
    14  -7.50000  -5.00000   1.75000   0.50000   90.00000   0.00000   0.00100    13   14   15    101
    15  -7.50000  -5.00000   2.25000   0.50000   90.00000   0.00000   0.00100    14   15   16    101
    16  -7.50000  -5.00000   2.75000   0.50000   90.00000   0.00000   0.00100    15   16   17    101
    17  -7.50000  -5.00000   3.25000   0.50000   90.00000   0.00000   0.00100    16   17   18    101
    18  -7.50000  -5.00000   3.75000   0.50000   90.00000   0.00000   0.00100    17   18   19    101
    19  -7.50000  -5.00000   4.25000   0.50000   90.00000   0.00000   0.00100    18   19   20    101
    20  -7.50000  -5.00000   4.75000   0.50000   90.00000   0.00000   0.00100    19   20    0    101
    21  -2.50000  -5.00000  -4.75000   0.50000   90.00000   0.00000   0.00100     0   21   22    102
    22  -2.50000  -5.00000  -4.25000   0.50000   90.00000   0.00000   0.00100    21   22   23    102
    23  -2.50000  -5.00000  -3.75000   0.50000   90.00000   0.00000   0.00100    22   23   24    102
    24  -2.50000  -5.00000  -3.25000   0.50000   90.00000   0.00000   0.00100    23   24   25    102
    25  -2.50000  -5.00000  -2.75000   0.50000   90.00000   0.00000   0.00100    24   25   26    102
    26  -2.50000  -5.00000  -2.25000   0.50000   90.00000   0.00000   0.00100    25   26   27    102
    27  -2.50000  -5.00000  -1.75000   0.50000   90.00000   0.00000   0.00100    26   27   28    102
    28  -2.50000  -5.00000  -1.25000   0.50000   90.00000   0.00000   0.00100    27   28   29    102
    29  -2.50000  -5.00000  -0.75000   0.50000   90.00000   0.00000   0.00100    28   29   30    102
    30  -2.50000  -5.00000  -0.25000   0.50000   90.00000   0.00000   0.00100    29   30   31    102
    31  -2.50000  -5.00000   0.25000   0.50000   90.00000   0.00000   0.00100    30   31   32    102
    32  -2.50000  -5.00000   0.75000   0.50000   90.00000   0.00000   0.00100    31   32   33    102
    33  -2.50000  -5.00000   1.25000   0.50000   90.00000   0.00000   0.00100    32   33   34    102
    34  -2.50000  -5.00000   1.75000   0.50000   90.00000   0.00000   0.00100    33   34   35    102
    35  -2.50000  -5.00000   2.25000   0.50000   90.00000   0.00000   0.00100    34   35   36    102
    36  -2.50000  -5.00000   2.75000   0.50000   90.00000   0.00000   0.00100    35   36   37    102
    37  -2.50000  -5.00000   3.25000   0.50000   90.00000   0.00000   0.00100    36   37   38    102
    38  -2.50000  -5.00000   3.75000   0.50000   90.00000   0.00000   0.00100    37   38   39    102
    39  -2.50000  -5.00000   4.25000   0.50000   90.00000   0.00000   0.00100    38   39   40    102
    40  -2.50000  -5.00000   4.75000   0.50000   90.00000   0.00000   0.00100    39   40    0    102
    41   2.50000  -5.00000  -4.75000   0.50000   90.00000   0.00000   0.00100     0   41   42    103
    42   2.50000  -5.00000  -4.25000   0.50000   90.00000   0.00000   0.00100    41   42   43    103
    43   2.50000  -5.00000  -3.75000   0.50000   90.00000   0.00000   0.00100    42   43   44    103
    44   2.50000  -5.00000  -3.25000   0.50000   90.00000   0.00000   0.00100    43   44   45    103
    45   2.50000  -5.00000  -2.75000   0.50000   90.00000   0.00000   0.00100    44   45   46    103
    46   2.50000  -5.00000  -2.25000   0.50000   90.00000   0.00000   0.00100    45   46   47    103
    47   2.50000  -5.00000  -1.75000   0.50000   90.00000   0.00000   0.00100    46   47   48    103
    48   2.50000  -5.00000  -1.25000   0.50000   90.00000   0.00000   0.00100    47   48   49    103
    49   2.50000  -5.00000  -0.75000   0.50000   90.00000   0.00000   0.00100    48   49   50    103
    50   2.50000  -5.00000  -0.25000   0.50000   90.00000   0.00000   0.00100    49   50   51    103
    51   2.50000  -5.00000   0.25000   0.50000   90.00000   0.00000   0.00100    50   51   52    103
    52   2.50000  -5.00000   0.75000   0.50000   90.00000   0.00000   0.00100    51   52   53    103
    53   2.50000  -5.00000   1.25000   0.50000   90.00000   0.00000   0.00100    52   53   54    103
    54   2.50000  -5.00000   1.75000   0.50000   90.00000   0.00000   0.00100    53   54   55    103
    55   2.50000  -5.00000   2.25000   0.50000   90.00000   0.00000   0.00100    54   55   56    103
    56   2.50000  -5.00000   2.75000   0.50000   90.00000   0.00000   0.00100    55   56   57    103
    57   2.50000  -5.00000   3.25000   0.50000   90.00000   0.00000   0.00100    56   57   58    103
    58   2.50000  -5.00000   3.75000   0.50000   90.00000   0.00000   0.00100    57   58   59    103
    59   2.50000  -5.00000   4.25000   0.50000   90.00000   0.00000   0.00100    58   59   60    103
    60   2.50000  -5.00000   4.75000   0.50000   90.00000   0.00000   0.00100    59   60    0    103
    61   7.50000  -5.00000  -4.75000   0.50000   90.00000   0.00000   0.00100     0   61   62    104
    62   7.50000  -5.00000  -4.25000   0.50000   90.00000   0.00000   0.00100    61   62   63    104
    63   7.50000  -5.00000  -3.75000   0.50000   90.00000   0.00000   0.00100    62   63   64    104
    64   7.50000  -5.00000  -3.25000   0.50000   90.00000   0.00000   0.00100    63   64   65    104
    65   7.50000  -5.00000  -2.75000   0.50000   90.00000   0.00000   0.00100    64   65   66    104
    66   7.50000  -5.00000  -2.25000   0.50000   90.00000   0.00000   0.00100    65   66   67    104
    67   7.50000  -5.00000  -1.75000   0.50000   90.00000   0.00000   0.00100    66   67   68    104
    68   7.50000  -5.00000  -1.25000   0.50000   90.00000   0.00000   0.00100    67   68   69    104
    69   7.50000  -5.00000  -0.75000   0.50000   90.00000   0.00000   0.00100    68   69   70    104
    70   7.50000  -5.00000  -0.25000   0.50000   90.00000   0.00000   0.00100    69   70   71    104
    71   7.50000  -5.00000   0.25000   0.50000   90.00000   0.00000   0.00100    70   71   72    104
    72   7.50000  -5.00000   0.75000   0.50000   90.00000   0.00000   0.00100    71   72   73    104
    73   7.50000  -5.00000   1.25000   0.50000   90.00000   0.00000   0.00100    72   73   74    104
    74   7.50000  -5.00000   1.75000   0.50000   90.00000   0.00000   0.00100    73   74   75    104
    75   7.50000  -5.00000   2.25000   0.50000   90.00000   0.00000   0.00100    74   75   76    104
    76   7.50000  -5.00000   2.75000   0.50000   90.00000   0.00000   0.00100    75   76   77    104
    77   7.50000  -5.00000   3.25000   0.50000   90.00000   0.00000   0.00100    76   77   78    104
    78   7.50000  -5.00000   3.75000   0.50000   90.00000   0.00000   0.00100    77   78   79    104
    79   7.50000  -5.00000   4.25000   0.50000   90.00000   0.00000   0.00100    78   79   80    104
    80   7.50000  -5.00000   4.75000   0.50000   90.00000   0.00000   0.00100    79   80    0    104
    81  -7.50000   0.00000  -4.75000   0.50000   90.00000   0.00000   0.00100     0   81   82    201
    82  -7.50000   0.00000  -4.25000   0.50000   90.00000   0.00000   0.00100    81   82   83    201
    83  -7.50000   0.00000  -3.75000   0.50000   90.00000   0.00000   0.00100    82   83   84    201
    84  -7.50000   0.00000  -3.25000   0.50000   90.00000   0.00000   0.00100    83   84   85    201
    85  -7.50000   0.00000  -2.75000   0.50000   90.00000   0.00000   0.00100    84   85   86    201
    86  -7.50000   0.00000  -2.25000   0.50000   90.00000   0.00000   0.00100    85   86   87    201
    87  -7.50000   0.00000  -1.75000   0.50000   90.00000   0.00000   0.00100    86   87   88    201
    88  -7.50000   0.00000  -1.25000   0.50000   90.00000   0.00000   0.00100    87   88   89    201
    89  -7.50000   0.00000  -0.75000   0.50000   90.00000   0.00000   0.00100    88   89   90    201
    90  -7.50000   0.00000  -0.25000   0.50000   90.00000   0.00000   0.00100    89   90   91    201
    91  -7.50000   0.00000   0.25000   0.50000   90.00000   0.00000   0.00100    90   91   92    201
    92  -7.50000   0.00000   0.75000   0.50000   90.00000   0.00000   0.00100    91   92   93    201
    93  -7.50000   0.00000   1.25000   0.50000   90.00000   0.00000   0.00100    92   93   94    201
    94  -7.50000   0.00000   1.75000   0.50000   90.00000   0.00000   0.00100    93   94   95    201
    95  -7.50000   0.00000   2.25000   0.50000   90.00000   0.00000   0.00100    94   95   96    201
    96  -7.50000   0.00000   2.75000   0.50000   90.00000   0.00000   0.00100    95   96   97    201
    97  -7.50000   0.00000   3.25000   0.50000   90.00000   0.00000   0.00100    96   97   98    201
    98  -7.50000   0.00000   3.75000   0.50000   90.00000   0.00000   0.00100    97   98   99    201
    99  -7.50000   0.00000   4.25000   0.50000   90.00000   0.00000   0.00100    98   99  100    201
   100  -7.50000   0.00000   4.75000   0.50000   90.00000   0.00000   0.00100    99  100    0    201
   101  -2.50000   0.00000  -4.75000   0.50000   90.00000   0.00000   0.00100     0  101  102    202
   102  -2.50000   0.00000  -4.25000   0.50000   90.00000   0.00000   0.00100   101  102  103    202
   103  -2.50000   0.00000  -3.75000   0.50000   90.00000   0.00000   0.00100   102  103  104    202
   104  -2.50000   0.00000  -3.25000   0.50000   90.00000   0.00000   0.00100   103  104  105    202
   105  -2.50000   0.00000  -2.75000   0.50000   90.00000   0.00000   0.00100   104  105  106    202
   106  -2.50000   0.00000  -2.25000   0.50000   90.00000   0.00000   0.00100   105  106  107    202
   107  -2.50000   0.00000  -1.75000   0.50000   90.00000   0.00000   0.00100   106  107  108    202
   108  -2.50000   0.00000  -1.25000   0.50000   90.00000   0.00000   0.00100   107  108  109    202
   109  -2.50000   0.00000  -0.75000   0.50000   90.00000   0.00000   0.00100   108  109  110    202
   110  -2.50000   0.00000  -0.25000   0.50000   90.00000   0.00000   0.00100   109  110  111    202
   111  -2.50000   0.00000   0.25000   0.50000   90.00000   0.00000   0.00100   110  111  112    202
   112  -2.50000   0.00000   0.75000   0.50000   90.00000   0.00000   0.00100   111  112  113    202
   113  -2.50000   0.00000   1.25000   0.50000   90.00000   0.00000   0.00100   112  113  114    202
   114  -2.50000   0.00000   1.75000   0.50000   90.00000   0.00000   0.00100   113  114  115    202
   115  -2.50000   0.00000   2.25000   0.50000   90.00000   0.00000   0.00100   114  115  116    202
   116  -2.50000   0.00000   2.75000   0.50000   90.00000   0.00000   0.00100   115  116  117    202
   117  -2.50000   0.00000   3.25000   0.50000   90.00000   0.00000   0.00100   116  117  118    202
   118  -2.50000   0.00000   3.75000   0.50000   90.00000   0.00000   0.00100   117  118  119    202
   119  -2.50000   0.00000   4.25000   0.50000   90.00000   0.00000   0.00100   118  119  120    202
   120  -2.50000   0.00000   4.75000   0.50000   90.00000   0.00000   0.00100   119  120    0    202
   121   2.50000   0.00000  -4.75000   0.50000   90.00000   0.00000   0.00100     0  121  122    203
   122   2.50000   0.00000  -4.25000   0.50000   90.00000   0.00000   0.00100   121  122  123    203
   123   2.50000   0.00000  -3.75000   0.50000   90.00000   0.00000   0.00100   122  123  124    203
   124   2.50000   0.00000  -3.25000   0.50000   90.00000   0.00000   0.00100   123  124  125    203
   125   2.50000   0.00000  -2.75000   0.50000   90.00000   0.00000   0.00100   124  125  126    203
   126   2.50000   0.00000  -2.25000   0.50000   90.00000   0.00000   0.00100   125  126  127    203
   127   2.50000   0.00000  -1.75000   0.50000   90.00000   0.00000   0.00100   126  127  128    203
   128   2.50000   0.00000  -1.25000   0.50000   90.00000   0.00000   0.00100   127  128  129    203
   129   2.50000   0.00000  -0.75000   0.50000   90.00000   0.00000   0.00100   128  129  130    203
   130   2.50000   0.00000  -0.25000   0.50000   90.00000   0.00000   0.00100   129  130  131    203
   131   2.50000   0.00000   0.25000   0.50000   90.00000   0.00000   0.00100   130  131  132    203
   132   2.50000   0.00000   0.75000   0.50000   90.00000   0.00000   0.00100   131  132  133    203
   133   2.50000   0.00000   1.25000   0.50000   90.00000   0.00000   0.00100   132  133  134    203
   134   2.50000   0.00000   1.75000   0.50000   90.00000   0.00000   0.00100   133  134  135    203
   135   2.50000   0.00000   2.25000   0.50000   90.00000   0.00000   0.00100   134  135  136    203
   136   2.50000   0.00000   2.75000   0.50000   90.00000   0.00000   0.00100   135  136  137    203
   137   2.50000   0.00000   3.25000   0.50000   90.00000   0.00000   0.00100   136  137  138    203
   138   2.50000   0.00000   3.75000   0.50000   90.00000   0.00000   0.00100   137  138  139    203
   139   2.50000   0.00000   4.25000   0.50000   90.00000   0.00000   0.00100   138  139  140    203
   140   2.50000   0.00000   4.75000   0.50000   90.00000   0.00000   0.00100   139  140    0    203
   141   7.50000   0.00000  -4.75000   0.50000   90.00000   0.00000   0.00100     0  141  142    204
   142   7.50000   0.00000  -4.25000   0.50000   90.00000   0.00000   0.00100   141  142  143    204
   143   7.50000   0.00000  -3.75000   0.50000   90.00000   0.00000   0.00100   142  143  144    204
   144   7.50000   0.00000  -3.25000   0.50000   90.00000   0.00000   0.00100   143  144  145    204
   145   7.50000   0.00000  -2.75000   0.50000   90.00000   0.00000   0.00100   144  145  146    204
   146   7.50000   0.00000  -2.25000   0.50000   90.00000   0.00000   0.00100   145  146  147    204
   147   7.50000   0.00000  -1.75000   0.50000   90.00000   0.00000   0.00100   146  147  148    204
   148   7.50000   0.00000  -1.25000   0.50000   90.00000   0.00000   0.00100   147  148  149    204
   149   7.50000   0.00000  -0.75000   0.50000   90.00000   0.00000   0.00100   148  149  150    204
   150   7.50000   0.00000  -0.25000   0.50000   90.00000   0.00000   0.00100   149  150  151    204
   151   7.50000   0.00000   0.25000   0.50000   90.00000   0.00000   0.00100   150  151  152    204
   152   7.50000   0.00000   0.75000   0.50000   90.00000   0.00000   0.00100   151  152  153    204
   153   7.50000   0.00000   1.25000   0.50000   90.00000   0.00000   0.00100   152  153  154    204
   154   7.50000   0.00000   1.75000   0.50000   90.00000   0.00000   0.00100   153  154  155    204
   155   7.50000   0.00000   2.25000   0.50000   90.00000   0.00000   0.00100   154  155  156    204
   156   7.50000   0.00000   2.75000   0.50000   90.00000   0.00000   0.00100   155  156  157    204
   157   7.50000   0.00000   3.25000   0.50000   90.00000   0.00000   0.00100   156  157  158    204
   158   7.50000   0.00000   3.75000   0.50000   90.00000   0.00000   0.00100   157  158  159    204
   159   7.50000   0.00000   4.25000   0.50000   90.00000   0.00000   0.00100   158  159  160    204
   160   7.50000   0.00000   4.75000   0.50000   90.00000   0.00000   0.00100   159  160    0    204
   161  -7.50000   5.00000  -4.75000   0.50000   90.00000   0.00000   0.00100     0  161  162    301
   162  -7.50000   5.00000  -4.25000   0.50000   90.00000   0.00000   0.00100   161  162  163    301
   163  -7.50000   5.00000  -3.75000   0.50000   90.00000   0.00000   0.00100   162  163  164    301
   164  -7.50000   5.00000  -3.25000   0.50000   90.00000   0.00000   0.00100   163  164  165    301
   165  -7.50000   5.00000  -2.75000   0.50000   90.00000   0.00000   0.00100   164  165  166    301
   166  -7.50000   5.00000  -2.25000   0.50000   90.00000   0.00000   0.00100   165  166  167    301
   167  -7.50000   5.00000  -1.75000   0.50000   90.00000   0.00000   0.00100   166  167  168    301
   168  -7.50000   5.00000  -1.25000   0.50000   90.00000   0.00000   0.00100   167  168  169    301
   169  -7.50000   5.00000  -0.75000   0.50000   90.00000   0.00000   0.00100   168  169  170    301
   170  -7.50000   5.00000  -0.25000   0.50000   90.00000   0.00000   0.00100   169  170  171    301
   171  -7.50000   5.00000   0.25000   0.50000   90.00000   0.00000   0.00100   170  171  172    301
   172  -7.50000   5.00000   0.75000   0.50000   90.00000   0.00000   0.00100   171  172  173    301
   173  -7.50000   5.00000   1.25000   0.50000   90.00000   0.00000   0.00100   172  173  174    301
   174  -7.50000   5.00000   1.75000   0.50000   90.00000   0.00000   0.00100   173  174  175    301
   175  -7.50000   5.00000   2.25000   0.50000   90.00000   0.00000   0.00100   174  175  176    301
   176  -7.50000   5.00000   2.75000   0.50000   90.00000   0.00000   0.00100   175  176  177    301
   177  -7.50000   5.00000   3.25000   0.50000   90.00000   0.00000   0.00100   176  177  178    301
   178  -7.50000   5.00000   3.75000   0.50000   90.00000   0.00000   0.00100   177  178  179    301
   179  -7.50000   5.00000   4.25000   0.50000   90.00000   0.00000   0.00100   178  179  180    301
   180  -7.50000   5.00000   4.75000   0.50000   90.00000   0.00000   0.00100   179  180    0    301
   181  -2.50000   5.00000  -4.75000   0.50000   90.00000   0.00000   0.00100     0  181  182    302
   182  -2.50000   5.00000  -4.25000   0.50000   90.00000   0.00000   0.00100   181  182  183    302
   183  -2.50000   5.00000  -3.75000   0.50000   90.00000   0.00000   0.00100   182  183  184    302
   184  -2.50000   5.00000  -3.25000   0.50000   90.00000   0.00000   0.00100   183  184  185    302
   185  -2.50000   5.00000  -2.75000   0.50000   90.00000   0.00000   0.00100   184  185  186    302
   186  -2.50000   5.00000  -2.25000   0.50000   90.00000   0.00000   0.00100   185  186  187    302
   187  -2.50000   5.00000  -1.75000   0.50000   90.00000   0.00000   0.00100   186  187  188    302
   188  -2.50000   5.00000  -1.25000   0.50000   90.00000   0.00000   0.00100   187  188  189    302
   189  -2.50000   5.00000  -0.75000   0.50000   90.00000   0.00000   0.00100   188  189  190    302
   190  -2.50000   5.00000  -0.25000   0.50000   90.00000   0.00000   0.00100   189  190  191    302
   191  -2.50000   5.00000   0.25000   0.50000   90.00000   0.00000   0.00100   190  191  192    302
   192  -2.50000   5.00000   0.75000   0.50000   90.00000   0.00000   0.00100   191  192  193    302
   193  -2.50000   5.00000   1.25000   0.50000   90.00000   0.00000   0.00100   192  193  194    302
   194  -2.50000   5.00000   1.75000   0.50000   90.00000   0.00000   0.00100   193  194  195    302
   195  -2.50000   5.00000   2.25000   0.50000   90.00000   0.00000   0.00100   194  195  196    302
   196  -2.50000   5.00000   2.75000   0.50000   90.00000   0.00000   0.00100   195  196  197    302
   197  -2.50000   5.00000   3.25000   0.50000   90.00000   0.00000   0.00100   196  197  198    302
   198  -2.50000   5.00000   3.75000   0.50000   90.00000   0.00000   0.00100   197  198  199    302
   199  -2.50000   5.00000   4.25000   0.50000   90.00000   0.00000   0.00100   198  199  200    302
   200  -2.50000   5.00000   4.75000   0.50000   90.00000   0.00000   0.00100   199  200    0    302
   201   2.50000   5.00000  -4.75000   0.50000   90.00000   0.00000   0.00100     0  201  202    303
   202   2.50000   5.00000  -4.25000   0.50000   90.00000   0.00000   0.00100   201  202  203    303
   203   2.50000   5.00000  -3.75000   0.50000   90.00000   0.00000   0.00100   202  203  204    303
   204   2.50000   5.00000  -3.25000   0.50000   90.00000   0.00000   0.00100   203  204  205    303
   205   2.50000   5.00000  -2.75000   0.50000   90.00000   0.00000   0.00100   204  205  206    303
   206   2.50000   5.00000  -2.25000   0.50000   90.00000   0.00000   0.00100   205  206  207    303
   207   2.50000   5.00000  -1.75000   0.50000   90.00000   0.00000   0.00100   206  207  208    303
   208   2.50000   5.00000  -1.25000   0.50000   90.00000   0.00000   0.00100   207  208  209    303
   209   2.50000   5.00000  -0.75000   0.50000   90.00000   0.00000   0.00100   208  209  210    303
   210   2.50000   5.00000  -0.25000   0.50000   90.00000   0.00000   0.00100   209  210  211    303
   211   2.50000   5.00000   0.25000   0.50000   90.00000   0.00000   0.00100   210  211  212    303
   212   2.50000   5.00000   0.75000   0.50000   90.00000   0.00000   0.00100   211  212  213    303
   213   2.50000   5.00000   1.25000   0.50000   90.00000   0.00000   0.00100   212  213  214    303
   214   2.50000   5.00000   1.75000   0.50000   90.00000   0.00000   0.00100   213  214  215    303
   215   2.50000   5.00000   2.25000   0.50000   90.00000   0.00000   0.00100   214  215  216    303
   216   2.50000   5.00000   2.75000   0.50000   90.00000   0.00000   0.00100   215  216  217    303
   217   2.50000   5.00000   3.25000   0.50000   90.00000   0.00000   0.00100   216  217  218    303
   218   2.50000   5.00000   3.75000   0.50000   90.00000   0.00000   0.00100   217  218  219    303
   219   2.50000   5.00000   4.25000   0.50000   90.00000   0.00000   0.00100   218  219  220    303
   220   2.50000   5.00000   4.75000   0.50000   90.00000   0.00000   0.00100   219  220    0    303
   221   7.50000   5.00000  -4.75000   0.50000   90.00000   0.00000   0.00100     0  221  222    304
   222   7.50000   5.00000  -4.25000   0.50000   90.00000   0.00000   0.00100   221  222  223    304
   223   7.50000   5.00000  -3.75000   0.50000   90.00000   0.00000   0.00100   222  223  224    304
   224   7.50000   5.00000  -3.25000   0.50000   90.00000   0.00000   0.00100   223  224  225    304
   225   7.50000   5.00000  -2.75000   0.50000   90.00000   0.00000   0.00100   224  225  226    304
   226   7.50000   5.00000  -2.25000   0.50000   90.00000   0.00000   0.00100   225  226  227    304
   227   7.50000   5.00000  -1.75000   0.50000   90.00000   0.00000   0.00100   226  227  228    304
   228   7.50000   5.00000  -1.25000   0.50000   90.00000   0.00000   0.00100   227  228  229    304
   229   7.50000   5.00000  -0.75000   0.50000   90.00000   0.00000   0.00100   228  229  230    304
   230   7.50000   5.00000  -0.25000   0.50000   90.00000   0.00000   0.00100   229  230  231    304
   231   7.50000   5.00000   0.25000   0.50000   90.00000   0.00000   0.00100   230  231  232    304
   232   7.50000   5.00000   0.75000   0.50000   90.00000   0.00000   0.00100   231  232  233    304
   233   7.50000   5.00000   1.25000   0.50000   90.00000   0.00000   0.00100   232  233  234    304
   234   7.50000   5.00000   1.75000   0.50000   90.00000   0.00000   0.00100   233  234  235    304
   235   7.50000   5.00000   2.25000   0.50000   90.00000   0.00000   0.00100   234  235  236    304
   236   7.50000   5.00000   2.75000   0.50000   90.00000   0.00000   0.00100   235  236  237    304
   237   7.50000   5.00000   3.25000   0.50000   90.00000   0.00000   0.00100   236  237  238    304
   238   7.50000   5.00000   3.75000   0.50000   90.00000   0.00000   0.00100   237  238  239    304
   239   7.50000   5.00000   4.25000   0.50000   90.00000   0.00000   0.00100   238  239  240    304
   240   7.50000   5.00000   4.75000   0.50000   90.00000   0.00000   0.00100   239  240    0    304






 ***** DATA CARD NO.  1   GN  -1     0     0     0  1.00000E+01  1.00000E-02  0.00000E+00  0.00000E+00  0.00000E+00  0.00000E+00
 ***** DATA CARD NO.  2   FR   0     0     0     0  1.50000E+02  0.00000E+00  0.00000E+00  0.00000E+00  0.00000E+00  0.00000E+00
 ***** DATA CARD NO.  3   EX   0   101    10     0 -2.34640E+01 -1.55860E+02  0.00000E+00  0.00000E+00  0.00000E+00  0.00000E+00
 ***** DATA CARD NO.  4   EX   0   102    10     0 -4.68890E+01  1.58580E+02  0.00000E+00  0.00000E+00  0.00000E+00  0.00000E+00
 ***** DATA CARD NO.  5   EX   0   103    10     0  1.07750E+02 -1.28320E+02  0.00000E+00  0.00000E+00  0.00000E+00  0.00000E+00
 ***** DATA CARD NO.  6   EX   0   104    10     0 -1.42390E+02  7.65020E+01  0.00000E+00  0.00000E+00  0.00000E+00  0.00000E+00
 ***** DATA CARD NO.  7   EX   0   201    10     0 -1.62200E+01 -1.49550E+02  0.00000E+00  0.00000E+00  0.00000E+00  0.00000E+00
 ***** DATA CARD NO.  8   EX   0   202    10     0 -5.78740E+01  1.50790E+02  0.00000E+00  0.00000E+00  0.00000E+00  0.00000E+00
 ***** DATA CARD NO.  9   EX   0   203    10     0  1.10760E+02 -1.21010E+02  0.00000E+00  0.00000E+00  0.00000E+00  0.00000E+00
 ***** DATA CARD NO. 10   EX   0   204    10     0 -1.40540E+02  7.33160E+01  0.00000E+00  0.00000E+00  0.00000E+00  0.00000E+00
 ***** DATA CARD NO. 11   EX   0   301    10     0 -2.34540E+01 -1.55860E+02  0.00000E+00  0.00000E+00  0.00000E+00  0.00000E+00
 ***** DATA CARD NO. 12   EX   0   302    10     0 -4.68880E+01  1.58580E+02  0.00000E+00  0.00000E+00  0.00000E+00  0.00000E+00
 ***** DATA CARD NO. 13   EX   0   303    10     0  1.07760E+02 -1.28320E+02  0.00000E+00  0.00000E+00  0.00000E+00  0.00000E+00
 ***** DATA CARD NO. 14   EX   0   304    10     0 -1.42400E+02  7.65110E+01  0.00000E+00  0.00000E+00  0.00000E+00  0.00000E+00
 ***** DATA CARD NO. 15   RP   0    19    72  1010  0.00000E+00  0.00000E+00  5.00000E+00  5.00000E+00  0.00000E+00  0.00000E+00




                                 - - - - - - FREQUENCY - - - - - -

                                    FREQUENCY= 1.5000E+02 MHZ
                                    WAVELENGTH= 1.9987E+00 METERS




                    APPROXIMATE INTEGRATION EMPLOYED FOR SEGMENTS MORE THAN   1.000 WAVELENGTHS APART



                               - - - STRUCTURE IMPEDANCE LOADING - - -

                                   THIS STRUCTURE IS NOT LOADED



                                  - - - ANTENNA ENVIRONMENT - - -

                                            FREE SPACE



                                - - - MATRIX TIMING - - -

                        FILL=    0.016 SEC.,  FACTOR=    0.016 SEC.



                                          - - - ANTENNA INPUT PARAMETERS - - -

   TAG   SEG.    VOLTAGE (VOLTS)         CURRENT (AMPS)         IMPEDANCE (OHMS)        ADMITTANCE (MHOS)      POWER
   NO.   NO.    REAL        IMAG.       REAL        IMAG.       REAL        IMAG.       REAL        IMAG.     (WATTS)
   101    10-2.34640E+01-1.55860E+02-2.95255E-01-4.17254E-01 2.75421E+02 1.38658E+02 2.89665E-03-1.45829E-03 3.59806E+01
   102    30-4.68890E+01 1.58580E+02 9.51831E-02 5.22992E-01 2.77701E+02 1.40196E+02 2.86962E-03-1.44871E-03 3.92365E+01
   103    50 1.07750E+02-1.28320E+02 1.23533E-01-5.18321E-01 2.81144E+02 1.40877E+02 2.84305E-03-1.42461E-03 3.99108E+01
   104    70-1.42390E+02 7.65020E+01-3.09250E-01 4.10111E-01 2.85826E+02 1.31668E+02 2.88617E-03-1.32954E-03 3.77042E+01
   201    90-1.62200E+01-1.49550E+02-2.73895E-01-3.95795E-01 2.74671E+02 1.49096E+02 2.81213E-03-1.52646E-03 3.18168E+01
   202   110-5.78740E+01 1.50790E+02 7.46535E-02 4.92447E-01 2.81911E+02 1.60260E+02 2.68086E-03-1.52401E-03 3.49678E+01
   203   130 1.10760E+02-1.21010E+02 1.01299E-01-4.87657E-01 2.83110E+02 1.68318E+02 2.60974E-03-1.55157E-03 3.51156E+01
   204   150-1.40540E+02 7.33160E+01-2.83572E-01 3.93359E-01 2.92130E+02 1.46686E+02 2.73385E-03-1.37274E-03 3.43464E+01
   301   170-2.34540E+01-1.55860E+02-2.95226E-01-4.17268E-01 2.75421E+02 1.38658E+02 2.89664E-03-1.45828E-03 3.59798E+01
   302   190-4.68880E+01 1.58580E+02 9.51851E-02 5.22992E-01 2.77701E+02 1.40195E+02 2.86963E-03-1.44871E-03 3.92366E+01
   303   210 1.07760E+02-1.28320E+02 1.23563E-01-5.18336E-01 2.81144E+02 1.40876E+02 2.84305E-03-1.42460E-03 3.99140E+01
   304   230-1.42400E+02 7.65110E+01-3.09267E-01 4.10153E-01 2.85824E+02 1.31668E+02 2.88618E-03-1.32955E-03 3.77104E+01



                             - - - CURRENTS AND LOCATION - - -

                                 DISTANCES IN WAVELENGTHS


  SEG.  TAG    COORD. OF SEG. CENTER     SEG.            - - - CURRENT (AMPS) - - -
  NO.   NO.     X        Y        Z      LENGTH     REAL        IMAG.       MAG.        PHASE
     1  101  -3.7525  -2.5017  -2.3766  0.25017  -3.6423E-01 -3.8057E-01  5.2678E-01 -133.743
     2  101  -3.7525  -2.5017  -2.1264  0.25017  -2.7254E-01 -3.6738E-01  4.5743E-01 -126.570
     3  101  -3.7525  -2.5017  -1.8763  0.25017   3.8921E-01  3.6586E-01  5.3417E-01   43.228
     4  101  -3.7525  -2.5017  -1.6261  0.25017   2.5672E-01  3.7436E-01  4.5393E-01   55.559
     5  101  -3.7525  -2.5017  -1.3759  0.25017  -3.8820E-01 -3.5268E-01  5.2449E-01 -137.745
     6  101  -3.7525  -2.5017  -1.1258  0.25017  -2.2777E-01 -3.7696E-01  4.4043E-01 -121.142
     7  101  -3.7525  -2.5017  -0.8756  0.25017   4.1903E-01  3.4701E-01  5.4406E-01   39.629
     8  101  -3.7525  -2.5017  -0.6254  0.25017   2.3765E-01  3.7938E-01  4.4767E-01   57.936
     9  101  -3.7525  -2.5017  -0.3753  0.25017  -4.1840E-01 -3.5960E-01  5.5170E-01 -139.323
    10  101  -3.7525  -2.5017  -0.1251  0.25017  -2.9526E-01 -4.1725E-01  5.1115E-01 -125.284
    11  101  -3.7525  -2.5017   0.1251  0.25017   4.6588E-02  3.5869E-01  3.6170E-01   82.600
    12  101  -3.7525  -2.5017   0.3753  0.25017   2.1732E-01  4.0188E-01  4.5688E-01   61.597
    13  101  -3.7525  -2.5017   0.6254  0.25017  -6.1817E-02 -3.4686E-01  3.5233E-01 -100.105
    14  101  -3.7525  -2.5017   0.8756  0.25017  -2.1472E-01 -3.8281E-01  4.3892E-01 -119.288
    15  101  -3.7525  -2.5017   1.1258  0.25017   7.1485E-02  3.5266E-01  3.5984E-01   78.541
    16  101  -3.7525  -2.5017   1.3759  0.25017   2.0886E-01  3.7613E-01  4.3023E-01   60.958
    17  101  -3.7525  -2.5017   1.6261  0.25017  -8.1814E-02 -3.6964E-01  3.7858E-01 -102.480
    18  101  -3.7525  -2.5017   1.8763  0.25017  -2.0075E-01 -3.9947E-01  4.4708E-01 -116.681
    19  101  -3.7525  -2.5017   2.1264  0.25017   9.4610E-02  3.5558E-01  3.6796E-01   75.101
    20  101  -3.7525  -2.5017   2.3766  0.25017   1.6942E-01  3.9377E-01  4.2867E-01   66.720
    21  102  -1.2508  -2.5017  -2.3766  0.25017   1.7845E-01  5.2028E-01  5.5004E-01   71.069
    22  102  -1.2508  -2.5017  -2.1264  0.25017   8.9501E-02  4.5927E-01  4.6791E-01   78.973
    23  102  -1.2508  -2.5017  -1.8763  0.25017  -2.1820E-01 -5.2920E-01  5.7242E-01 -112.407
    24  102  -1.2508  -2.5017  -1.6261  0.25017  -7.9841E-02 -4.6782E-01  4.7458E-01  -99.685
    25  102  -1.2508  -2.5017  -1.3759  0.25017   2.1505E-01  5.1531E-01  5.5838E-01   67.348
    26  102  -1.2508  -2.5017  -1.1258  0.25017   4.3331E-02  4.6592E-01  4.6793E-01   84.687
    27  102  -1.2508  -2.5017  -0.8756  0.25017  -2.5271E-01 -5.0969E-01  5.6889E-01 -116.372
    28  102  -1.2508  -2.5017  -0.6254  0.25017  -5.2186E-02 -4.5952E-01  4.6247E-01  -96.479
    29  102  -1.2508  -2.5017  -0.3753  0.25017   2.5170E-01  5.2932E-01  5.8611E-01   64.568
    30  102  -1.2508  -2.5017  -0.1251  0.25017   9.5183E-02  5.2299E-01  5.3158E-01   79.685
    31  102  -1.2508  -2.5017   0.1251  0.25017   9.7731E-02 -3.6586E-01  3.7868E-01  -75.044
    32  102  -1.2508  -2.5017   0.3753  0.25017  -4.3361E-02 -4.7806E-01  4.8002E-01  -95.183
    33  102  -1.2508  -2.5017   0.6254  0.25017  -9.9316E-02  3.5723E-01  3.7078E-01  105.537
    34  102  -1.2508  -2.5017   0.8756  0.25017   3.2105E-02  4.5562E-01  4.5675E-01   85.969
    35  102  -1.2508  -2.5017   1.1258  0.25017   8.5635E-02 -3.6819E-01  3.7802E-01  -76.907
    36  102  -1.2508  -2.5017   1.3759  0.25017  -2.6188E-02 -4.4377E-01  4.4454E-01  -93.377
    37  102  -1.2508  -2.5017   1.6261  0.25017  -7.2024E-02  3.9677E-01  4.0325E-01  100.289
    38  102  -1.2508  -2.5017   1.8763  0.25017   2.4684E-02  4.7196E-01  4.7260E-01   87.006
    39  102  -1.2508  -2.5017   2.1264  0.25017   7.0790E-02 -3.8334E-01  3.8982E-01  -79.537
    40  102  -1.2508  -2.5017   2.3766  0.25017   1.3983E-02 -4.5235E-01  4.5257E-01  -88.229
    41  103   1.2508  -2.5017  -2.3766  0.25017   4.3386E-02 -5.4846E-01  5.5017E-01  -85.477
    42  103   1.2508  -2.5017  -2.1264  0.25017   1.0225E-01 -4.5581E-01  4.6714E-01  -77.356
    43  103   1.2508  -2.5017  -1.8763  0.25017  -8.0566E-03  5.7358E-01  5.7364E-01   90.805
    44  103   1.2508  -2.5017  -1.6261  0.25017  -1.1111E-01  4.6023E-01  4.7345E-01  103.573
    45  103   1.2508  -2.5017  -1.3759  0.25017   1.0152E-02 -5.5972E-01  5.5982E-01  -88.961
    46  103   1.2508  -2.5017  -1.1258  0.25017   1.4982E-01 -4.4464E-01  4.6920E-01  -71.378
    47  103   1.2508  -2.5017  -0.8756  0.25017   3.3521E-02  5.6820E-01  5.6919E-01   86.624
    48  103   1.2508  -2.5017  -0.6254  0.25017  -1.3170E-01  4.4011E-01  4.5940E-01  106.660
    49  103   1.2508  -2.5017  -0.3753  0.25017  -1.7268E-02 -5.8848E-01  5.8873E-01  -91.681
    50  103   1.2508  -2.5017  -0.1251  0.25017   1.2353E-01 -5.1832E-01  5.3284E-01  -76.595
    51  103   1.2508  -2.5017   0.1251  0.25017  -2.3740E-01  2.9495E-01  3.7862E-01  128.830
    52  103   1.2508  -2.5017   0.3753  0.25017  -1.5230E-01  4.5722E-01  4.8192E-01  108.422
    53  103   1.2508  -2.5017   0.6254  0.25017   2.3462E-01 -2.8373E-01  3.6817E-01  -50.412
    54  103   1.2508  -2.5017   0.8756  0.25017   1.5219E-01 -4.2996E-01  4.5610E-01  -70.507
    55  103   1.2508  -2.5017   1.1258  0.25017  -2.2735E-01  2.9922E-01  3.7580E-01  127.228
    56  103   1.2508  -2.5017   1.3759  0.25017  -1.5323E-01  4.1386E-01  4.4131E-01  110.316
    57  103   1.2508  -2.5017   1.6261  0.25017   2.2578E-01 -3.3595E-01  4.0477E-01  -56.096
    58  103   1.2508  -2.5017   1.8763  0.25017   1.6460E-01 -4.4529E-01  4.7474E-01  -69.713
    59  103   1.2508  -2.5017   2.1264  0.25017  -2.2137E-01  3.1788E-01  3.8737E-01  124.854
    60  103   1.2508  -2.5017   2.3766  0.25017  -1.9486E-01  4.0654E-01  4.5082E-01  115.609
    61  104   3.7525  -2.5017  -2.3766  0.25017  -2.5057E-01  4.6246E-01  5.2598E-01  118.450
    62  104   3.7525  -2.5017  -2.1264  0.25017  -2.7684E-01  3.6264E-01  4.5623E-01  127.357
    63  104   3.7525  -2.5017  -1.8763  0.25017   2.1750E-01 -4.9452E-01  5.4024E-01  -66.259
    64  104   3.7525  -2.5017  -1.6261  0.25017   2.8119E-01 -3.5839E-01  4.5554E-01  -51.882
    65  104   3.7525  -2.5017  -1.3759  0.25017  -2.0933E-01  4.9151E-01  5.3423E-01  113.069
    66  104   3.7525  -2.5017  -1.1258  0.25017  -2.9575E-01  3.4618E-01  4.5531E-01  130.509
    67  104   3.7525  -2.5017  -0.8756  0.25017   1.9130E-01 -4.9680E-01  5.3235E-01  -68.940
    68  104   3.7525  -2.5017  -0.6254  0.25017   2.9343E-01 -3.3418E-01  4.4472E-01  -48.716
    69  104   3.7525  -2.5017  -0.3753  0.25017  -2.0285E-01  5.1632E-01  5.5474E-01  111.448
    70  104   3.7525  -2.5017  -0.1251  0.25017  -3.0925E-01  4.1011E-01  5.1364E-01  127.019
    71  104   3.7525  -2.5017   0.1251  0.25017   3.2611E-01 -1.5634E-01  3.6165E-01  -25.614
    72  104   3.7525  -2.5017   0.3753  0.25017   3.0967E-01 -3.3285E-01  4.5463E-01  -47.066
    73  104   3.7525  -2.5017   0.6254  0.25017  -3.2423E-01  1.6078E-01  3.6191E-01  153.624
    74  104   3.7525  -2.5017   0.8756  0.25017  -3.0372E-01  3.1544E-01  4.3789E-01  133.916
    75  104   3.7525  -2.5017   1.1258  0.25017   3.2103E-01 -1.7956E-01  3.6783E-01  -29.220
    76  104   3.7525  -2.5017   1.3759  0.25017   2.9983E-01 -3.0934E-01  4.3080E-01  -45.895
    77  104   3.7525  -2.5017   1.6261  0.25017  -3.2648E-01  2.0155E-01  3.8368E-01  148.310
    78  104   3.7525  -2.5017   1.8763  0.25017  -3.0976E-01  3.2120E-01  4.4623E-01  133.961
    79  104   3.7525  -2.5017   2.1264  0.25017   3.2889E-01 -1.9769E-01  3.8373E-01  -31.009
    80  104   3.7525  -2.5017   2.3766  0.25017   3.3276E-01 -2.8273E-01  4.3666E-01  -40.352
    81  201  -3.7525   0.0000  -2.3766  0.25017  -3.4424E-01 -3.5840E-01  4.9694E-01 -133.845
    82  201  -3.7525   0.0000  -2.1264  0.25017  -2.6435E-01 -3.4925E-01  4.3801E-01 -127.122
    83  201  -3.7525   0.0000  -1.8763  0.25017   3.5577E-01  3.3388E-01  4.8790E-01   43.182
    84  201  -3.7525   0.0000  -1.6261  0.25017   2.4160E-01  3.4056E-01  4.1755E-01   54.648
    85  201  -3.7525   0.0000  -1.3759  0.25017  -3.5536E-01 -3.3040E-01  4.8522E-01 -137.084
    86  201  -3.7525   0.0000  -1.1258  0.25017  -2.1410E-01 -3.3793E-01  4.0004E-01 -122.357
    87  201  -3.7525   0.0000  -0.8756  0.25017   3.7736E-01  3.3919E-01  5.0740E-01   41.951
    88  201  -3.7525   0.0000  -0.6254  0.25017   2.0915E-01  3.5084E-01  4.0845E-01   59.199
    89  201  -3.7525   0.0000  -0.3753  0.25017  -3.9123E-01 -3.5105E-01  5.2564E-01 -138.099
    90  201  -3.7525   0.0000  -0.1251  0.25017  -2.7390E-01 -3.9579E-01  4.8132E-01 -124.684
    91  201  -3.7525   0.0000   0.1251  0.25017   2.9803E-02  3.3097E-01  3.3231E-01   84.855
    92  201  -3.7525   0.0000   0.3753  0.25017   1.9759E-01  3.7955E-01  4.2790E-01   62.499
    93  201  -3.7525   0.0000   0.6254  0.25017  -4.2881E-02 -3.1763E-01  3.2052E-01  -97.689
    94  201  -3.7525   0.0000   0.8756  0.25017  -1.9150E-01 -3.6483E-01  4.1204E-01 -117.694
    95  201  -3.7525   0.0000   1.1258  0.25017   5.3497E-02  3.1387E-01  3.1840E-01   80.327
    96  201  -3.7525   0.0000   1.3759  0.25017   1.8153E-01  3.5243E-01  3.9644E-01   62.748
    97  201  -3.7525   0.0000   1.6261  0.25017  -6.9934E-02 -3.2287E-01  3.3036E-01 -102.222
    98  201  -3.7525   0.0000   1.8763  0.25017  -1.7438E-01 -3.5585E-01  3.9628E-01 -116.106
    99  201  -3.7525   0.0000   2.1264  0.25017   9.0449E-02  3.2742E-01  3.3969E-01   74.557
   100  201  -3.7525   0.0000   2.3766  0.25017   1.5563E-01  3.5943E-01  3.9167E-01   66.588
   101  202  -1.2508   0.0000  -2.3766  0.25017   1.6388E-01  4.9010E-01  5.1678E-01   71.511
   102  202  -1.2508   0.0000  -2.1264  0.25017   8.6297E-02  4.3246E-01  4.4099E-01   78.715
   103  202  -1.2508   0.0000  -1.8763  0.25017  -1.8980E-01 -4.8773E-01  5.2336E-01 -111.264
   104  202  -1.2508   0.0000  -1.6261  0.25017  -7.2108E-02 -4.2073E-01  4.2687E-01  -99.725
   105  202  -1.2508   0.0000  -1.3759  0.25017   1.8327E-01  4.8891E-01  5.2213E-01   69.452
   106  202  -1.2508   0.0000  -1.1258  0.25017   3.6022E-02  4.1871E-01  4.2025E-01   85.083
   107  202  -1.2508   0.0000  -0.8756  0.25017  -2.0829E-01 -4.9183E-01  5.3412E-01 -112.952
   108  202  -1.2508   0.0000  -0.6254  0.25017  -2.3883E-02 -4.1533E-01  4.1601E-01  -93.291
   109  202  -1.2508   0.0000  -0.3753  0.25017   2.2651E-01  5.1817E-01  5.6552E-01   66.388
   110  202  -1.2508   0.0000  -0.1251  0.25017   7.4654E-02  4.9245E-01  4.9807E-01   81.380
   111  202  -1.2508   0.0000   0.1251  0.25017   1.0670E-01 -3.2485E-01  3.4192E-01  -71.817
   112  202  -1.2508   0.0000   0.3753  0.25017  -2.9956E-02 -4.4579E-01  4.4680E-01  -93.844
   113  202  -1.2508   0.0000   0.6254  0.25017  -1.1687E-01  3.1321E-01  3.3430E-01  110.462
   114  202  -1.2508   0.0000   0.8756  0.25017   8.6657E-03  4.2704E-01  4.2712E-01   88.837
   115  202  -1.2508   0.0000   1.1258  0.25017   9.8171E-02 -3.1349E-01  3.2850E-01  -72.612
   116  202  -1.2508   0.0000   1.3759  0.25017   2.9874E-03 -4.0753E-01  4.0754E-01  -89.580
   117  202  -1.2508   0.0000   1.6261  0.25017  -7.0278E-02  3.3394E-01  3.4126E-01  101.884
   118  202  -1.2508   0.0000   1.8763  0.25017   6.9898E-03  4.1194E-01  4.1200E-01   89.028
   119  202  -1.2508   0.0000   2.1264  0.25017   6.7943E-02 -3.4450E-01  3.5114E-01  -78.843
   120  202  -1.2508   0.0000   2.3766  0.25017   2.0328E-02 -4.0524E-01  4.0575E-01  -87.128
   121  203   1.2508   0.0000  -2.3766  0.25017   1.2482E-02 -5.1865E-01  5.1880E-01  -88.621
   122  203   1.2508   0.0000  -2.1264  0.25017   6.2738E-02 -4.3503E-01  4.3953E-01  -81.794
   123  203   1.2508   0.0000  -1.8763  0.25017   7.6080E-03  5.2850E-01  5.2855E-01   89.175
   124  203   1.2508   0.0000  -1.6261  0.25017  -7.6113E-02  4.2188E-01  4.2869E-01  100.227
   125  203   1.2508   0.0000  -1.3759  0.25017  -1.4995E-03 -5.2356E-01  5.2357E-01  -90.164
   126  203   1.2508   0.0000  -1.1258  0.25017   1.1332E-01 -4.0080E-01  4.1651E-01  -74.212
   127  203   1.2508   0.0000  -0.8756  0.25017   3.1307E-02  5.4551E-01  5.4641E-01   86.715
   128  203   1.2508   0.0000  -0.6254  0.25017  -1.1469E-01  4.0678E-01  4.2264E-01  105.746
   129  203   1.2508   0.0000  -0.3753  0.25017  -3.0421E-02 -5.6295E-01  5.6377E-01  -93.093
   130  203   1.2508   0.0000  -0.1251  0.25017   1.0130E-01 -4.8766E-01  4.9807E-01  -78.265
   131  203   1.2508   0.0000   0.1251  0.25017  -2.1030E-01  2.6171E-01  3.3574E-01  128.784
   132  203   1.2508   0.0000   0.3753  0.25017  -1.2779E-01  4.2676E-01  4.4549E-01  106.670
   133  203   1.2508   0.0000   0.6254  0.25017   2.1070E-01 -2.5116E-01  3.2784E-01  -50.007
   134  203   1.2508   0.0000   0.8756  0.25017   1.3480E-01 -4.0667E-01  4.2843E-01  -71.661
   135  203   1.2508   0.0000   1.1258  0.25017  -1.9745E-01  2.5469E-01  3.2226E-01  127.784
   136  203   1.2508   0.0000   1.3759  0.25017  -1.3835E-01  3.8355E-01  4.0774E-01  109.835
   137  203   1.2508   0.0000   1.6261  0.25017   1.8468E-01 -2.8313E-01  3.3804E-01  -56.884
   138  203   1.2508   0.0000   1.8763  0.25017   1.4186E-01 -3.9203E-01  4.1691E-01  -70.107
   139  203   1.2508   0.0000   2.1264  0.25017  -1.7235E-01  2.8957E-01  3.3698E-01  120.760
   140  203   1.2508   0.0000   2.3766  0.25017  -1.5340E-01  3.6882E-01  3.9945E-01  112.584
   141  204   3.7525   0.0000  -2.3766  0.25017  -2.1941E-01  4.4456E-01  4.9576E-01  116.268
   142  204   3.7525   0.0000  -2.1264  0.25017  -2.4586E-01  3.5605E-01  4.3269E-01  124.625
   143  204   3.7525   0.0000  -1.8763  0.25017   1.8927E-01 -4.6010E-01  4.9752E-01  -67.639
   144  204   3.7525   0.0000  -1.6261  0.25017   2.4736E-01 -3.3559E-01  4.1691E-01  -53.606
   145  204   3.7525   0.0000  -1.3759  0.25017  -1.8527E-01  4.6760E-01  5.0297E-01  111.614
   146  204   3.7525   0.0000  -1.1258  0.25017  -2.5670E-01  3.2681E-01  4.1558E-01  128.149
   147  204   3.7525   0.0000  -0.8756  0.25017   1.8409E-01 -4.7282E-01  5.0739E-01  -68.727
   148  204   3.7525   0.0000  -0.6254  0.25017   2.7483E-01 -3.1407E-01  4.1733E-01  -48.812
   149  204   3.7525   0.0000  -0.3753  0.25017  -1.8008E-01  4.9511E-01  5.2684E-01  109.988
   150  204   3.7525   0.0000  -0.1251  0.25017  -2.8357E-01  3.9336E-01  4.8492E-01  125.788
   151  204   3.7525   0.0000   0.1251  0.25017   2.9885E-01 -1.3483E-01  3.2786E-01  -24.283
   152  204   3.7525   0.0000   0.3753  0.25017   2.8196E-01 -3.1156E-01  4.2021E-01  -47.855
   153  204   3.7525   0.0000   0.6254  0.25017  -3.0191E-01  1.4573E-01  3.3524E-01  154.234
   154  204   3.7525   0.0000   0.8756  0.25017  -2.8432E-01  3.0214E-01  4.1488E-01  133.259
   155  204   3.7525   0.0000   1.1258  0.25017   2.9213E-01 -1.5678E-01  3.3155E-01  -28.221
   156  204   3.7525   0.0000   1.3759  0.25017   2.8309E-01 -2.9379E-01  4.0799E-01  -46.063
   157  204   3.7525   0.0000   1.6261  0.25017  -2.8399E-01  1.6981E-01  3.3088E-01  149.122
   158  204   3.7525   0.0000   1.8763  0.25017  -2.7809E-01  2.8528E-01  3.9840E-01  134.269
   159  204   3.7525   0.0000   2.1264  0.25017   2.9015E-01 -1.8974E-01  3.4668E-01  -33.182
   160  204   3.7525   0.0000   2.3766  0.25017   2.9477E-01 -2.6499E-01  3.9637E-01  -41.955
   161  301  -3.7525   2.5017  -2.3766  0.25017  -3.6420E-01 -3.8059E-01  5.2677E-01 -133.739
   162  301  -3.7525   2.5017  -2.1264  0.25017  -2.7251E-01 -3.6739E-01  4.5743E-01 -126.566
   163  301  -3.7525   2.5017  -1.8763  0.25017   3.8919E-01  3.6588E-01  5.3417E-01   43.232
   164  301  -3.7525   2.5017  -1.6261  0.25017   2.5670E-01  3.7437E-01  4.5393E-01   55.563
   165  301  -3.7525   2.5017  -1.3759  0.25017  -3.8818E-01 -3.5270E-01  5.2448E-01 -137.742
   166  301  -3.7525   2.5017  -1.1258  0.25017  -2.2774E-01 -3.7697E-01  4.4042E-01 -121.138
   167  301  -3.7525   2.5017  -0.8756  0.25017   4.1900E-01  3.4703E-01  5.4406E-01   39.633
   168  301  -3.7525   2.5017  -0.6254  0.25017   2.3762E-01  3.7939E-01  4.4767E-01   57.940
   169  301  -3.7525   2.5017  -0.3753  0.25017  -4.1838E-01 -3.5962E-01  5.5169E-01 -139.319
   170  301  -3.7525   2.5017  -0.1251  0.25017  -2.9523E-01 -4.1727E-01  5.1115E-01 -125.280
   171  301  -3.7525   2.5017   0.1251  0.25017   4.6566E-02  3.5868E-01  3.6169E-01   82.603
   172  301  -3.7525   2.5017   0.3753  0.25017   2.1729E-01  4.0189E-01  4.5688E-01   61.601
   173  301  -3.7525   2.5017   0.6254  0.25017  -6.1794E-02 -3.4686E-01  3.5233E-01 -100.101
   174  301  -3.7525   2.5017   0.8756  0.25017  -2.1469E-01 -3.8282E-01  4.3891E-01 -119.284
   175  301  -3.7525   2.5017   1.1258  0.25017   7.1462E-02  3.5267E-01  3.5983E-01   78.545
   176  301  -3.7525   2.5017   1.3759  0.25017   2.0883E-01  3.7614E-01  4.3022E-01   60.962
   177  301  -3.7525   2.5017   1.6261  0.25017  -8.1791E-02 -3.6964E-01  3.7858E-01 -102.477
   178  301  -3.7525   2.5017   1.8763  0.25017  -2.0072E-01 -3.9948E-01  4.4707E-01 -116.678
   179  301  -3.7525   2.5017   2.1264  0.25017   9.4587E-02  3.5559E-01  3.6795E-01   75.104
   180  301  -3.7525   2.5017   2.3766  0.25017   1.6939E-01  3.9378E-01  4.2866E-01   66.724
   181  302  -1.2508   2.5017  -2.3766  0.25017   1.7845E-01  5.2028E-01  5.5004E-01   71.069
   182  302  -1.2508   2.5017  -2.1264  0.25017   8.9503E-02  4.5927E-01  4.6791E-01   78.973
   183  302  -1.2508   2.5017  -1.8763  0.25017  -2.1820E-01 -5.2920E-01  5.7242E-01 -112.407
   184  302  -1.2508   2.5017  -1.6261  0.25017  -7.9843E-02 -4.6782E-01  4.7458E-01  -99.685
   185  302  -1.2508   2.5017  -1.3759  0.25017   2.1505E-01  5.1531E-01  5.5838E-01   67.348
   186  302  -1.2508   2.5017  -1.1258  0.25017   4.3332E-02  4.6592E-01  4.6793E-01   84.687
   187  302  -1.2508   2.5017  -0.8756  0.25017  -2.5271E-01 -5.0969E-01  5.6889E-01 -116.373
   188  302  -1.2508   2.5017  -0.6254  0.25017  -5.2187E-02 -4.5952E-01  4.6247E-01  -96.479
   189  302  -1.2508   2.5017  -0.3753  0.25017   2.5170E-01  5.2932E-01  5.8612E-01   64.568
   190  302  -1.2508   2.5017  -0.1251  0.25017   9.5185E-02  5.2299E-01  5.3158E-01   79.685
   191  302  -1.2508   2.5017   0.1251  0.25017   9.7730E-02 -3.6586E-01  3.7869E-01  -75.044
   192  302  -1.2508   2.5017   0.3753  0.25017  -4.3363E-02 -4.7806E-01  4.8002E-01  -95.183
   193  302  -1.2508   2.5017   0.6254  0.25017  -9.9316E-02  3.5724E-01  3.7078E-01  105.537
   194  302  -1.2508   2.5017   0.8756  0.25017   3.2106E-02  4.5562E-01  4.5675E-01   85.969
   195  302  -1.2508   2.5017   1.1258  0.25017   8.5634E-02 -3.6819E-01  3.7802E-01  -76.907
   196  302  -1.2508   2.5017   1.3759  0.25017  -2.6189E-02 -4.4377E-01  4.4454E-01  -93.377
   197  302  -1.2508   2.5017   1.6261  0.25017  -7.2023E-02  3.9677E-01  4.0325E-01  100.289
   198  302  -1.2508   2.5017   1.8763  0.25017   2.4685E-02  4.7196E-01  4.7260E-01   87.006
   199  302  -1.2508   2.5017   2.1264  0.25017   7.0789E-02 -3.8334E-01  3.8982E-01  -79.537
   200  302  -1.2508   2.5017   2.3766  0.25017   1.3983E-02 -4.5235E-01  4.5257E-01  -88.229
   201  303   1.2508   2.5017  -2.3766  0.25017   4.3414E-02 -5.4848E-01  5.5019E-01  -85.474
   202  303   1.2508   2.5017  -2.1264  0.25017   1.0228E-01 -4.5582E-01  4.6716E-01  -77.353
   203  303   1.2508   2.5017  -1.8763  0.25017  -8.0838E-03  5.7360E-01  5.7366E-01   90.807
   204  303   1.2508   2.5017  -1.6261  0.25017  -1.1114E-01  4.6024E-01  4.7347E-01  103.576
   205  303   1.2508   2.5017  -1.3759  0.25017   1.0179E-02 -5.5975E-01  5.5984E-01  -88.958
   206  303   1.2508   2.5017  -1.1258  0.25017   1.4985E-01 -4.4465E-01  4.6922E-01  -71.376
   207  303   1.2508   2.5017  -0.8756  0.25017   3.3495E-02  5.6822E-01  5.6921E-01   86.627
   208  303   1.2508   2.5017  -0.6254  0.25017  -1.3173E-01  4.4012E-01  4.5942E-01  106.663
   209  303   1.2508   2.5017  -0.3753  0.25017  -1.7242E-02 -5.8850E-01  5.8876E-01  -91.678
   210  303   1.2508   2.5017  -0.1251  0.25017   1.2356E-01 -5.1834E-01  5.3286E-01  -76.592
   211  303   1.2508   2.5017   0.1251  0.25017  -2.3742E-01  2.9495E-01  3.7863E-01  128.832
   212  303   1.2508   2.5017   0.3753  0.25017  -1.5232E-01  4.5724E-01  4.8194E-01  108.425
   213  303   1.2508   2.5017   0.6254  0.25017   2.3464E-01 -2.8373E-01  3.6819E-01  -50.410
   214  303   1.2508   2.5017   0.8756  0.25017   1.5222E-01 -4.2997E-01  4.5612E-01  -70.505
   215  303   1.2508   2.5017   1.1258  0.25017  -2.2738E-01  2.9922E-01  3.7581E-01  127.231
   216  303   1.2508   2.5017   1.3759  0.25017  -1.5325E-01  4.1387E-01  4.4133E-01  110.319
   217  303   1.2508   2.5017   1.6261  0.25017   2.2581E-01 -3.3595E-01  4.0479E-01  -56.093
   218  303   1.2508   2.5017   1.8763  0.25017   1.6463E-01 -4.4530E-01  4.7476E-01  -69.710
   219  303   1.2508   2.5017   2.1264  0.25017  -2.2140E-01  3.1788E-01  3.8739E-01  124.856
   220  303   1.2508   2.5017   2.3766  0.25017  -1.9489E-01  4.0655E-01  4.5084E-01  115.612
   221  304   3.7525   2.5017  -2.3766  0.25017  -2.5058E-01  4.6251E-01  5.2603E-01  118.448
   222  304   3.7525   2.5017  -2.1264  0.25017  -2.7685E-01  3.6268E-01  4.5627E-01  127.356
   223  304   3.7525   2.5017  -1.8763  0.25017   2.1751E-01 -4.9457E-01  5.4028E-01  -66.260
   224  304   3.7525   2.5017  -1.6261  0.25017   2.8121E-01 -3.5843E-01  4.5557E-01  -51.883
   225  304   3.7525   2.5017  -1.3759  0.25017  -2.0934E-01  4.9155E-01  5.3427E-01  113.068
   226  304   3.7525   2.5017  -1.1258  0.25017  -2.9577E-01  3.4621E-01  4.5535E-01  130.508
   227  304   3.7525   2.5017  -0.8756  0.25017   1.9131E-01 -4.9684E-01  5.3240E-01  -68.941
   228  304   3.7525   2.5017  -0.6254  0.25017   2.9344E-01 -3.3422E-01  4.4476E-01  -48.717
   229  304   3.7525   2.5017  -0.3753  0.25017  -2.0285E-01  5.1637E-01  5.5479E-01  111.447
   230  304   3.7525   2.5017  -0.1251  0.25017  -3.0927E-01  4.1015E-01  5.1368E-01  127.017
   231  304   3.7525   2.5017   0.1251  0.25017   3.2613E-01 -1.5637E-01  3.6168E-01  -25.616
   232  304   3.7525   2.5017   0.3753  0.25017   3.0969E-01 -3.3288E-01  4.5467E-01  -47.067
   233  304   3.7525   2.5017   0.6254  0.25017  -3.2425E-01  1.6080E-01  3.6194E-01  153.623
   234  304   3.7525   2.5017   0.8756  0.25017  -3.0374E-01  3.1547E-01  4.3792E-01  133.914
   235  304   3.7525   2.5017   1.1258  0.25017   3.2105E-01 -1.7958E-01  3.6787E-01  -29.221
   236  304   3.7525   2.5017   1.3759  0.25017   2.9985E-01 -3.0938E-01  4.3084E-01  -45.896
   237  304   3.7525   2.5017   1.6261  0.25017  -3.2650E-01  2.0158E-01  3.8371E-01  148.309
   238  304   3.7525   2.5017   1.8763  0.25017  -3.0978E-01  3.2123E-01  4.4626E-01  133.960
   239  304   3.7525   2.5017   2.1264  0.25017   3.2891E-01 -1.9771E-01  3.8376E-01  -31.011
   240  304   3.7525   2.5017   2.3766  0.25017   3.3279E-01 -2.8276E-01  4.3669E-01  -40.354



                                        - - - POWER BUDGET - - -

                                           INPUT POWER   = 4.4192E+02 WATTS
                                           RADIATED POWER= 4.4192E+02 WATTS
                                           STRUCTURE LOSS= 0.0000E+00 WATTS
                                           NETWORK LOSS  = 0.0000E+00 WATTS
                                           EFFICIENCY    = 100.00 PERCENT



                                                - - - RADIATION PATTERNS - - -

  - - ANGLES - -       - DIRECTIVE GAINS -       - - - POLARIZATION - - -    - - - E(THETA) - - -    - - - E(PHI) - - -
  THETA     PHI        VERT.   HOR.    TOTAL      AXIAL     TILT   SENSE     MAGNITUDE    PHASE      MAGNITUDE    PHASE 
 DEGREES  DEGREES       DB      DB      DB        RATIO     DEG.              VOLTS/M    DEGREES      VOLTS/M    DEGREES
    0.00     0.00    -999.99 -999.99 -999.99    0.00000     0.00            0.00000E+00     0.00    0.00000E+00     0.00
    5.00     0.00      -9.76 -999.99   -9.76    0.00000     0.00  LINEAR    5.28893E+01     5.80    0.00000E+00     0.00
   10.00     0.00      11.54 -999.99   11.54    0.00000     0.00  LINEAR    6.14650E+02     5.70    0.00000E+00     0.00
   15.00     0.00       0.84 -999.99    0.84    0.00000     0.00  LINEAR    1.79215E+02     5.86    0.00000E+00     0.00
   20.00     0.00       3.26 -999.99    3.26    0.00000     0.00  LINEAR    2.36911E+02  -174.52    0.00000E+00     0.00
   25.00     0.00       6.26 -999.99    6.26    0.00000     0.00  LINEAR    3.34520E+02     5.70    0.00000E+00     0.00
   30.00     0.00       7.54 -999.99    7.54    0.00000     0.00  LINEAR    3.87766E+02  -173.73    0.00000E+00     0.00
   35.00     0.00      11.87 -999.99   11.87    0.00000     0.00  LINEAR    6.38356E+02  -173.08    0.00000E+00     0.00
   40.00     0.00     -22.14 -999.99  -22.14    0.00000     0.00  LINEAR    1.27197E+01  -148.25    0.00000E+00     0.00
   45.00     0.00      -5.19 -999.99   -5.19    0.00000     0.00  LINEAR    8.95702E+01  -173.88    0.00000E+00     0.00
   50.00     0.00     -21.97 -999.99  -21.97    0.00000     0.00  LINEAR    1.29764E+01  -167.16    0.00000E+00     0.00
   55.00     0.00      -6.33 -999.99   -6.33    0.00000     0.00  LINEAR    7.85758E+01  -168.83    0.00000E+00     0.00
   60.00     0.00     -11.97 -999.99  -11.97    0.00000     0.00  LINEAR    4.10288E+01  -158.48    0.00000E+00     0.00
   65.00     0.00       1.95 -999.99    1.95    0.00000     0.00  LINEAR    2.03645E+02    13.22    0.00000E+00     0.00
   70.00     0.00      -2.45 -999.99   -2.45    0.00000     0.00  LINEAR    1.22815E+02   161.95    0.00000E+00     0.00
   75.00     0.00       4.51 -999.99    4.51    0.00000     0.00  LINEAR    2.73454E+02   178.47    0.00000E+00     0.00
   80.00     0.00       2.23 -999.99    2.23    0.00000     0.00  LINEAR    2.10526E+02    21.53    0.00000E+00     0.00
   85.00     0.00       9.90 -999.99    9.90    0.00000     0.00  LINEAR    5.09054E+02    19.20    0.00000E+00     0.00
   90.00     0.00       2.24 -999.99    2.24    0.00000     0.00  LINEAR    2.10641E+02    46.41    0.00000E+00     0.00
    0.00     5.00    -999.99 -999.99 -999.99    0.00000     0.00            0.00000E+00     0.00    0.00000E+00     0.00
    5.00     5.00     -10.02 -999.99  -10.02    0.00000     0.00  LINEAR    5.13391E+01     5.80    0.00000E+00     0.00
   10.00     5.00      11.37 -999.99   11.37    0.00000     0.00  LINEAR    6.02769E+02     5.70    0.00000E+00     0.00
   15.00     5.00       1.02 -999.99    1.02    0.00000     0.00  LINEAR    1.83043E+02     5.86    0.00000E+00     0.00
   20.00     5.00       2.84 -999.99    2.84    0.00000     0.00  LINEAR    2.25732E+02  -174.51    0.00000E+00     0.00
   25.00     5.00       5.19 -999.99    5.19    0.00000     0.00  LINEAR    2.95895E+02     5.71    0.00000E+00     0.00
   30.00     5.00       5.40 -999.99    5.40    0.00000     0.00  LINEAR    3.03218E+02  -173.61    0.00000E+00     0.00
   35.00     5.00       9.96 -999.99    9.96    0.00000     0.00  LINEAR    5.12543E+02  -172.76    0.00000E+00     0.00
   40.00     5.00     -21.91 -999.99  -21.91    0.00000     0.00  LINEAR    1.30669E+01  -144.89    0.00000E+00     0.00
   45.00     5.00      -8.74 -999.99   -8.74    0.00000     0.00  LINEAR    5.95089E+01  -174.18    0.00000E+00     0.00
   50.00     5.00     -23.17 -999.99  -23.17    0.00000     0.00  LINEAR    1.13020E+01  -167.72    0.00000E+00     0.00
   55.00     5.00     -10.67 -999.99  -10.67    0.00000     0.00  LINEAR    4.76743E+01  -169.45    0.00000E+00     0.00
   60.00     5.00     -13.04 -999.99  -13.04    0.00000     0.00  LINEAR    3.62823E+01  -163.60    0.00000E+00     0.00
   65.00     5.00      -4.51 -999.99   -4.51    0.00000     0.00  LINEAR    9.68666E+01    13.71    0.00000E+00     0.00
   70.00     5.00      -8.21 -999.99   -8.21    0.00000     0.00  LINEAR    6.32337E+01   159.60    0.00000E+00     0.00
   75.00     5.00      -1.87 -999.99   -1.87    0.00000     0.00  LINEAR    1.31252E+02   177.50    0.00000E+00     0.00
   80.00     5.00      -3.92 -999.99   -3.92    0.00000     0.00  LINEAR    1.03672E+02    19.42    0.00000E+00     0.00
   85.00     5.00       3.55 -999.99    3.55    0.00000     0.00  LINEAR    2.44946E+02    18.19    0.00000E+00     0.00
   90.00     5.00      -3.96 -999.99   -3.96    0.00000     0.00  LINEAR    1.03144E+02    45.93    0.00000E+00     0.00
    0.00    10.00    -999.99 -999.99 -999.99    0.00000     0.00            0.00000E+00     0.00    0.00000E+00     0.00
    5.00    10.00     -10.83 -999.99  -10.83    0.00000     0.00  LINEAR    4.68032E+01     5.81    0.00000E+00     0.00
   10.00    10.00      10.85 -999.99   10.85    0.00000     0.00  LINEAR    5.67692E+02     5.70    0.00000E+00     0.00
   15.00    10.00       1.35 -999.99    1.35    0.00000     0.00  LINEAR    1.90245E+02     5.85    0.00000E+00     0.00
   20.00    10.00       1.30 -999.99    1.30    0.00000     0.00  LINEAR    1.89144E+02  -174.47    0.00000E+00     0.00
   25.00    10.00       1.46 -999.99    1.46    0.00000     0.00  LINEAR    1.92672E+02     5.78    0.00000E+00     0.00
   30.00    10.00      -2.43 -999.99   -2.43    0.00000     0.00  LINEAR    1.23113E+02  -172.93    0.00000E+00     0.00
   35.00    10.00       2.23 -999.99    2.23    0.00000     0.00  LINEAR    2.10349E+02  -170.49    0.00000E+00     0.00
   40.00    10.00     -21.00 -999.99  -21.00    0.00000     0.00  LINEAR    1.45016E+01  -137.14    0.00000E+00     0.00
   45.00    10.00     -33.48 -999.99  -33.48    0.00000     0.00  LINEAR    3.44707E+00   176.53    0.00000E+00     0.00
   50.00    10.00     -33.25 -999.99  -33.25    0.00000     0.00  LINEAR    3.54122E+00    -6.27    0.00000E+00     0.00
   55.00    10.00     -29.25 -999.99  -29.25    0.00000     0.00  LINEAR    5.61348E+00    20.24    0.00000E+00     0.00
   60.00    10.00     -18.63 -999.99  -18.63    0.00000     0.00  LINEAR    1.90525E+01    19.35    0.00000E+00     0.00
   65.00    10.00     -15.79 -999.99  -15.79    0.00000     0.00  LINEAR    2.64395E+01  -174.23    0.00000E+00     0.00
   70.00    10.00     -17.35 -999.99  -17.35    0.00000     0.00  LINEAR    2.20901E+01     1.02    0.00000E+00     0.00
   75.00    10.00      -6.94 -999.99   -6.94    0.00000     0.00  LINEAR    7.32561E+01     2.66    0.00000E+00     0.00
   80.00    10.00      -9.22 -999.99   -9.22    0.00000     0.00  LINEAR    5.63325E+01  -150.46    0.00000E+00     0.00
   85.00    10.00      -0.40 -999.99   -0.40    0.00000     0.00  LINEAR    1.55385E+02  -157.78    0.00000E+00     0.00
   90.00    10.00      -8.64 -999.99   -8.64    0.00000     0.00  LINEAR    6.01795E+01  -133.27    0.00000E+00     0.00
    0.00    15.00    -999.99 -999.99 -999.99    0.00000     0.00            0.00000E+00     0.00    0.00000E+00     0.00
    5.00    15.00     -12.27 -999.99  -12.27    0.00000     0.00  LINEAR    3.96170E+01     5.82    0.00000E+00     0.00
   10.00    15.00       9.94 -999.99    9.94    0.00000     0.00  LINEAR    5.11243E+02     5.70    0.00000E+00     0.00
   15.00    15.00       1.31 -999.99    1.31    0.00000     0.00  LINEAR    1.89238E+02     5.87    0.00000E+00     0.00
   20.00    15.00      -2.39 -999.99   -2.39    0.00000     0.00  LINEAR    1.23648E+02  -174.40    0.00000E+00     0.00
   25.00    15.00      -7.87 -999.99   -7.87    0.00000     0.00  LINEAR    6.57815E+01     6.00    0.00000E+00     0.00
   30.00    15.00     -34.15 -999.99  -34.15    0.00000     0.00  LINEAR    3.19195E+00   -26.37    0.00000E+00     0.00
   35.00    15.00      -5.93 -999.99   -5.93    0.00000     0.00  LINEAR    8.22301E+01    -3.69    0.00000E+00     0.00
   40.00    15.00     -19.46 -999.99  -19.46    0.00000     0.00  LINEAR    1.73196E+01  -131.45    0.00000E+00     0.00
   45.00    15.00     -23.37 -999.99  -23.37    0.00000     0.00  LINEAR    1.10423E+01     5.13    0.00000E+00     0.00
   50.00    15.00     -16.74 -999.99  -16.74    0.00000     0.00  LINEAR    2.37041E+01     4.66    0.00000E+00     0.00
   55.00    15.00     -21.69 -999.99  -21.69    0.00000     0.00  LINEAR    1.33958E+01    11.30    0.00000E+00     0.00
   60.00    15.00      -9.63 -999.99   -9.63    0.00000     0.00  LINEAR    5.37426E+01    14.29    0.00000E+00     0.00
   65.00    15.00     -30.99 -999.99  -30.99    0.00000     0.00  LINEAR    4.59141E+00   145.86    0.00000E+00     0.00
   70.00    15.00     -20.61 -999.99  -20.61    0.00000     0.00  LINEAR    1.51769E+01     6.72    0.00000E+00     0.00
   75.00    15.00     -12.78 -999.99  -12.78    0.00000     0.00  LINEAR    3.73703E+01     4.75    0.00000E+00     0.00
   80.00    15.00     -17.82 -999.99  -17.82    0.00000     0.00  LINEAR    2.09272E+01  -142.01    0.00000E+00     0.00
   85.00    15.00     -10.75 -999.99  -10.75    0.00000     0.00  LINEAR    4.72216E+01  -153.01    0.00000E+00     0.00
   90.00    15.00     -21.88 -999.99  -21.88    0.00000     0.00  LINEAR    1.31066E+01  -132.66    0.00000E+00     0.00
    0.00    20.00    -999.99 -999.99 -999.99    0.00000     0.00            0.00000E+00     0.00    0.00000E+00     0.00
    5.00    20.00     -14.60 -999.99  -14.60    0.00000     0.00  LINEAR    3.03056E+01     5.83    0.00000E+00     0.00
   10.00    20.00       8.57 -999.99    8.57    0.00000     0.00  LINEAR    4.36821E+02     5.70    0.00000E+00     0.00
   15.00    20.00       0.12 -999.99    0.12    0.00000     0.00  LINEAR    1.65064E+02     5.92    0.00000E+00     0.00
   20.00    20.00     -12.65 -999.99  -12.65    0.00000     0.00  LINEAR    3.79478E+01  -174.08    0.00000E+00     0.00
   25.00    20.00     -17.16 -999.99  -17.16    0.00000     0.00  LINEAR    2.25604E+01  -174.46    0.00000E+00     0.00
   30.00    20.00     -38.36 -999.99  -38.36    0.00000     0.00  LINEAR    1.96508E+00  -169.20    0.00000E+00     0.00
   35.00    20.00       0.93 -999.99    0.93    0.00000     0.00  LINEAR    1.81242E+02     2.07    0.00000E+00     0.00
   40.00    20.00     -18.04 -999.99  -18.04    0.00000     0.00  LINEAR    2.03908E+01  -131.97    0.00000E+00     0.00
   45.00    20.00     -20.98 -999.99  -20.98    0.00000     0.00  LINEAR    1.45489E+01  -168.32    0.00000E+00     0.00
   50.00    20.00     -26.84 -999.99  -26.84    0.00000     0.00  LINEAR    7.40363E+00     7.17    0.00000E+00     0.00
   55.00    20.00     -41.64 -999.99  -41.64    0.00000     0.00  LINEAR    1.34776E+00   -62.32    0.00000E+00     0.00
   60.00    20.00     -10.85 -999.99  -10.85    0.00000     0.00  LINEAR    4.66779E+01  -167.98    0.00000E+00     0.00
   65.00    20.00     -14.21 -999.99  -14.21    0.00000     0.00  LINEAR    3.17036E+01  -155.93    0.00000E+00     0.00
   70.00    20.00     -25.41 -999.99  -25.41    0.00000     0.00  LINEAR    8.73216E+00   169.08    0.00000E+00     0.00
   75.00    20.00      -5.98 -999.99   -5.98    0.00000     0.00  LINEAR    8.17626E+01   177.92    0.00000E+00     0.00
   80.00    20.00      -3.83 -999.99   -3.83    0.00000     0.00  LINEAR    1.04741E+02    20.30    0.00000E+00     0.00
   85.00    20.00       6.13 -999.99    6.13    0.00000     0.00  LINEAR    3.29602E+02    18.11    0.00000E+00     0.00
   90.00    20.00      -0.88 -999.99   -0.88    0.00000     0.00  LINEAR    1.47137E+02    44.78    0.00000E+00     0.00
    0.00    25.00    -999.99 -999.99 -999.99    0.00000     0.00            0.00000E+00     0.00    0.00000E+00     0.00
    5.00    25.00     -18.41 -999.99  -18.41    0.00000     0.00  LINEAR    1.95367E+01     5.88    0.00000E+00     0.00
   10.00    25.00       6.64 -999.99    6.64    0.00000     0.00  LINEAR    3.49678E+02     5.70    0.00000E+00     0.00
   15.00    25.00      -3.75 -999.99   -3.75    0.00000     0.00  LINEAR    1.05683E+02     6.14    0.00000E+00     0.00
   20.00    25.00     -12.38 -999.99  -12.38    0.00000     0.00  LINEAR    3.91386E+01     5.23    0.00000E+00     0.00
   25.00    25.00     -15.36 -999.99  -15.36    0.00000     0.00  LINEAR    2.77705E+01  -173.02    0.00000E+00     0.00
   30.00    25.00      -8.71 -999.99   -8.71    0.00000     0.00  LINEAR    5.97465E+01  -175.27    0.00000E+00     0.00
   35.00    25.00      -6.24 -999.99   -6.24    0.00000     0.00  LINEAR    7.93597E+01    -0.27    0.00000E+00     0.00
   40.00    25.00     -17.55 -999.99  -17.55    0.00000     0.00  LINEAR    2.15887E+01  -136.43    0.00000E+00     0.00
   45.00    25.00     -11.29 -999.99  -11.29    0.00000     0.00  LINEAR    4.43845E+01     4.44    0.00000E+00     0.00
   50.00    25.00     -16.90 -999.99  -16.90    0.00000     0.00  LINEAR    2.32463E+01   179.16    0.00000E+00     0.00
   55.00    25.00     -10.73 -999.99  -10.73    0.00000     0.00  LINEAR    4.73350E+01     9.08    0.00000E+00     0.00
   60.00    25.00      -9.80 -999.99   -9.80    0.00000     0.00  LINEAR    5.27000E+01  -165.15    0.00000E+00     0.00
   65.00    25.00      -3.60 -999.99   -3.60    0.00000     0.00  LINEAR    1.07513E+02  -158.72    0.00000E+00     0.00
   70.00    25.00     -13.57 -999.99  -13.57    0.00000     0.00  LINEAR    3.41195E+01   -25.47    0.00000E+00     0.00
   75.00    25.00     -21.24 -999.99  -21.24    0.00000     0.00  LINEAR    1.41059E+01   176.18    0.00000E+00     0.00
   80.00    25.00      -9.92 -999.99   -9.92    0.00000     0.00  LINEAR    5.19727E+01    25.62    0.00000E+00     0.00
   85.00    25.00       2.24 -999.99    2.24    0.00000     0.00  LINEAR    2.10734E+02    18.94    0.00000E+00     0.00
   90.00    25.00      -4.49 -999.99   -4.49    0.00000     0.00  LINEAR    9.71098E+01    45.39    0.00000E+00     0.00
    0.00    30.00    -999.99 -999.99 -999.99    0.00000     0.00            0.00000E+00     0.00    0.00000E+00     0.00
    5.00    30.00     -26.11 -999.99  -26.11    0.00000     0.00  LINEAR    8.05848E+00     6.07    0.00000E+00     0.00
   10.00    30.00       3.96 -999.99    3.96    0.00000     0.00  LINEAR    2.56896E+02     5.70    0.00000E+00     0.00
   15.00    30.00     -25.00 -999.99  -25.00    0.00000     0.00  LINEAR    9.15447E+00    12.36    0.00000E+00     0.00
   20.00    30.00      -7.55 -999.99   -7.55    0.00000     0.00  LINEAR    6.82246E+01     5.61    0.00000E+00     0.00
   25.00    30.00     -15.67 -999.99  -15.67    0.00000     0.00  LINEAR    2.67835E+01     2.75    0.00000E+00     0.00
   30.00    30.00     -12.04 -999.99  -12.04    0.00000     0.00  LINEAR    4.07136E+01  -176.24    0.00000E+00     0.00
   35.00    30.00     -13.20 -999.99  -13.20    0.00000     0.00  LINEAR    3.56224E+01  -167.19    0.00000E+00     0.00
   40.00    30.00     -18.72 -999.99  -18.72    0.00000     0.00  LINEAR    1.88721E+01  -139.60    0.00000E+00     0.00
   45.00    30.00       3.62 -999.99    3.62    0.00000     0.00  LINEAR    2.46918E+02     6.12    0.00000E+00     0.00
   50.00    30.00     -13.37 -999.99  -13.37    0.00000     0.00  LINEAR    3.49025E+01    17.44    0.00000E+00     0.00
   55.00    30.00      -6.89 -999.99   -6.89    0.00000     0.00  LINEAR    7.36460E+01    12.33    0.00000E+00     0.00
   60.00    30.00      -3.80 -999.99   -3.80    0.00000     0.00  LINEAR    1.05107E+02     9.62    0.00000E+00     0.00
   65.00    30.00     -17.04 -999.99  -17.04    0.00000     0.00  LINEAR    2.28855E+01  -145.44    0.00000E+00     0.00
   70.00    30.00     -13.47 -999.99  -13.47    0.00000     0.00  LINEAR    3.45220E+01   -19.65    0.00000E+00     0.00
   75.00    30.00     -13.35 -999.99  -13.35    0.00000     0.00  LINEAR    3.50159E+01    -0.49    0.00000E+00     0.00
   80.00    30.00     -17.73 -999.99  -17.73    0.00000     0.00  LINEAR    2.11336E+01  -176.43    0.00000E+00     0.00
   85.00    30.00     -16.14 -999.99  -16.14    0.00000     0.00  LINEAR    2.53796E+01  -174.51    0.00000E+00     0.00
   90.00    30.00     -26.44 -999.99  -26.44    0.00000     0.00  LINEAR    7.75864E+00  -160.70    0.00000E+00     0.00
    0.00    35.00    -999.99 -999.99 -999.99    0.00000     0.00            0.00000E+00     0.00    0.00000E+00     0.00
    5.00    35.00     -33.68 -999.99  -33.68    0.00000     0.00  LINEAR    3.36898E+00  -175.04    0.00000E+00     0.00
   10.00    35.00       0.21 -999.99    0.21    0.00000     0.00  LINEAR    1.66820E+02     5.70    0.00000E+00     0.00
   15.00    35.00      -3.26 -999.99   -3.26    0.00000     0.00  LINEAR    1.11791E+02  -174.98    0.00000E+00     0.00
   20.00    35.00     -15.23 -999.99  -15.23    0.00000     0.00  LINEAR    2.81775E+01     6.91    0.00000E+00     0.00
   25.00    35.00      -9.64 -999.99   -9.64    0.00000     0.00  LINEAR    5.36492E+01     4.02    0.00000E+00     0.00
   30.00    35.00     -10.50 -999.99  -10.50    0.00000     0.00  LINEAR    4.86142E+01     6.93    0.00000E+00     0.00
   35.00    35.00     -23.14 -999.99  -23.14    0.00000     0.00  LINEAR    1.13335E+01     2.14    0.00000E+00     0.00
   40.00    35.00     -22.65 -999.99  -22.65    0.00000     0.00  LINEAR    1.19929E+01  -136.55    0.00000E+00     0.00
   45.00    35.00       7.42 -999.99    7.42    0.00000     0.00  LINEAR    3.82461E+02     6.12    0.00000E+00     0.00
   50.00    35.00      -1.70 -999.99   -1.70    0.00000     0.00  LINEAR    1.33843E+02    10.07    0.00000E+00     0.00
   55.00    35.00     -22.44 -999.99  -22.44    0.00000     0.00  LINEAR    1.22937E+01   145.95    0.00000E+00     0.00
   60.00    35.00      -9.10 -999.99   -9.10    0.00000     0.00  LINEAR    5.70785E+01    12.81    0.00000E+00     0.00
   65.00    35.00     -25.46 -999.99  -25.46    0.00000     0.00  LINEAR    8.68514E+00    17.77    0.00000E+00     0.00
   70.00    35.00     -50.37 -999.99  -50.37    0.00000     0.00  LINEAR    4.93027E-01    50.49    0.00000E+00     0.00
   75.00    35.00     -27.40 -999.99  -27.40    0.00000     0.00  LINEAR    6.94087E+00   175.95    0.00000E+00     0.00
   80.00    35.00     -23.66 -999.99  -23.66    0.00000     0.00  LINEAR    1.06776E+01    24.02    0.00000E+00     0.00
   85.00    35.00     -12.87 -999.99  -12.87    0.00000     0.00  LINEAR    3.70064E+01    19.32    0.00000E+00     0.00
   90.00    35.00     -20.33 -999.99  -20.33    0.00000     0.00  LINEAR    1.56625E+01    45.84    0.00000E+00     0.00
    0.00    40.00    -999.99 -999.99 -999.99    0.00000     0.00            0.00000E+00     0.00    0.00000E+00     0.00
    5.00    40.00     -21.28 -999.99  -21.28    0.00000     0.00  LINEAR    1.40402E+01  -174.45    0.00000E+00     0.00
   10.00    40.00      -5.35 -999.99   -5.35    0.00000     0.00  LINEAR    8.79238E+01     5.69    0.00000E+00     0.00
   15.00    40.00       3.01 -999.99    3.01    0.00000     0.00  LINEAR    2.30173E+02  -174.69    0.00000E+00     0.00
   20.00    40.00      -9.51 -999.99   -9.51    0.00000     0.00  LINEAR    5.44340E+01  -176.04    0.00000E+00     0.00
   25.00    40.00     -30.01 -999.99  -30.01    0.00000     0.00  LINEAR    5.14236E+00  -166.03    0.00000E+00     0.00
   30.00    40.00     -10.99 -999.99  -10.99    0.00000     0.00  LINEAR    4.59134E+01     6.50    0.00000E+00     0.00
   35.00    40.00      -1.34 -999.99   -1.34    0.00000     0.00  LINEAR    1.39484E+02     6.58    0.00000E+00     0.00
   40.00    40.00     -32.40 -999.99  -32.40    0.00000     0.00  LINEAR    3.90300E+00  -119.87    0.00000E+00     0.00
   45.00    40.00       3.64 -999.99    3.64    0.00000     0.00  LINEAR    2.47637E+02     5.71    0.00000E+00     0.00
   50.00    40.00      -5.25 -999.99   -5.25    0.00000     0.00  LINEAR    8.89585E+01    10.94    0.00000E+00     0.00
   55.00    40.00     -20.27 -999.99  -20.27    0.00000     0.00  LINEAR    1.57821E+01   140.91    0.00000E+00     0.00
   60.00    40.00     -16.96 -999.99  -16.96    0.00000     0.00  LINEAR    2.30890E+01    21.11    0.00000E+00     0.00
   65.00    40.00     -16.62 -999.99  -16.62    0.00000     0.00  LINEAR    2.40299E+01  -163.58    0.00000E+00     0.00
   70.00    40.00     -22.07 -999.99  -22.07    0.00000     0.00  LINEAR    1.28266E+01   -11.56    0.00000E+00     0.00
   75.00    40.00     -18.88 -999.99  -18.88    0.00000     0.00  LINEAR    1.85186E+01     3.53    0.00000E+00     0.00
   80.00    40.00     -26.89 -999.99  -26.89    0.00000     0.00  LINEAR    7.36762E+00  -156.02    0.00000E+00     0.00
   85.00    40.00     -24.69 -999.99  -24.69    0.00000     0.00  LINEAR    9.48126E+00  -158.84    0.00000E+00     0.00
   90.00    40.00     -35.26 -999.99  -35.26    0.00000     0.00  LINEAR    2.81072E+00  -144.80    0.00000E+00     0.00
    0.00    45.00    -999.99 -999.99 -999.99    0.00000     0.00            0.00000E+00     0.00    0.00000E+00     0.00
    5.00    45.00     -16.86 -999.99  -16.86    0.00000     0.00  LINEAR    2.33679E+01  -174.37    0.00000E+00     0.00
   10.00    45.00     -15.51 -999.99  -15.51    0.00000     0.00  LINEAR    2.72882E+01     5.65    0.00000E+00     0.00
   15.00    45.00       5.71 -999.99    5.71    0.00000     0.00  LINEAR    3.13993E+02  -174.60    0.00000E+00     0.00
   20.00    45.00      -3.74 -999.99   -3.74    0.00000     0.00  LINEAR    1.05798E+02  -175.77    0.00000E+00     0.00
   25.00    45.00      -6.90 -999.99   -6.90    0.00000     0.00  LINEAR    7.35210E+01  -175.08    0.00000E+00     0.00
   30.00    45.00      -2.13 -999.99   -2.13    0.00000     0.00  LINEAR    1.27316E+02  -174.64    0.00000E+00     0.00
   35.00    45.00      -1.84 -999.99   -1.84    0.00000     0.00  LINEAR    1.31650E+02     7.03    0.00000E+00     0.00
   40.00    45.00     -38.49 -999.99  -38.49    0.00000     0.00  LINEAR    1.93637E+00    38.60    0.00000E+00     0.00
   45.00    45.00     -12.92 -999.99  -12.92    0.00000     0.00  LINEAR    3.67691E+01     3.18    0.00000E+00     0.00
   50.00    45.00     -13.40 -999.99  -13.40    0.00000     0.00  LINEAR    3.47876E+01  -178.34    0.00000E+00     0.00
   55.00    45.00      -4.38 -999.99   -4.38    0.00000     0.00  LINEAR    9.83400E+01    15.49    0.00000E+00     0.00
   60.00    45.00       2.05 -999.99    2.05    0.00000     0.00  LINEAR    2.06004E+02    11.85    0.00000E+00     0.00
   65.00    45.00      -8.85 -999.99   -8.85    0.00000     0.00  LINEAR    5.87508E+01    11.29    0.00000E+00     0.00
   70.00    45.00     -28.91 -999.99  -28.91    0.00000     0.00  LINEAR    5.83831E+00   -16.49    0.00000E+00     0.00
   75.00    45.00     -41.62 -999.99  -41.62    0.00000     0.00  LINEAR    1.35091E+00  -152.93    0.00000E+00     0.00
   80.00    45.00     -20.67 -999.99  -20.67    0.00000     0.00  LINEAR    1.50736E+01     9.74    0.00000E+00     0.00
   85.00    45.00      -9.97 -999.99   -9.97    0.00000     0.00  LINEAR    5.16700E+01    14.95    0.00000E+00     0.00
   90.00    45.00     -16.04 -999.99  -16.04    0.00000     0.00  LINEAR    2.56730E+01    38.23    0.00000E+00     0.00
    0.00    50.00    -999.99 -999.99 -999.99    0.00000     0.00            0.00000E+00     0.00    0.00000E+00     0.00
    5.00    50.00     -14.43 -999.99  -14.43    0.00000     0.00  LINEAR    3.09240E+01  -174.35    0.00000E+00     0.00
   10.00    50.00     -23.49 -999.99  -23.49    0.00000     0.00  LINEAR    1.08918E+01  -174.10    0.00000E+00     0.00
   15.00    50.00       6.38 -999.99    6.38    0.00000     0.00  LINEAR    3.39299E+02  -174.57    0.00000E+00     0.00
   20.00    50.00     -10.09 -999.99  -10.09    0.00000     0.00  LINEAR    5.09402E+01  -178.07    0.00000E+00     0.00
   25.00    50.00     -14.28 -999.99  -14.28    0.00000     0.00  LINEAR    3.14626E+01    11.00    0.00000E+00     0.00
   30.00    50.00       4.56 -999.99    4.56    0.00000     0.00  LINEAR    2.75235E+02  -174.64    0.00000E+00     0.00
   35.00    50.00     -18.00 -999.99  -18.00    0.00000     0.00  LINEAR    2.05018E+01  -178.65    0.00000E+00     0.00
   40.00    50.00     -36.55 -999.99  -36.55    0.00000     0.00  LINEAR    2.42080E+00    72.22    0.00000E+00     0.00
   45.00    50.00     -29.33 -999.99  -29.33    0.00000     0.00  LINEAR    5.56082E+00     6.44    0.00000E+00     0.00
   50.00    50.00     -15.54 -999.99  -15.54    0.00000     0.00  LINEAR    2.72053E+01  -170.95    0.00000E+00     0.00
   55.00    50.00      -8.06 -999.99   -8.06    0.00000     0.00  LINEAR    6.43436E+01    12.64    0.00000E+00     0.00
   60.00    50.00     -11.87 -999.99  -11.87    0.00000     0.00  LINEAR    4.15007E+01    17.56    0.00000E+00     0.00
[...]
   40.00   315.00     -38.49 -999.99  -38.49    0.00000     0.00  LINEAR    1.93645E+00    38.60    0.00000E+00     0.00
   45.00   315.00     -12.92 -999.99  -12.92    0.00000     0.00  LINEAR    3.67639E+01     3.18    0.00000E+00     0.00
   50.00   315.00     -13.40 -999.99  -13.40    0.00000     0.00  LINEAR    3.47868E+01  -178.34    0.00000E+00     0.00
   55.00   315.00      -4.38 -999.99   -4.38    0.00000     0.00  LINEAR    9.83390E+01    15.49    0.00000E+00     0.00
   60.00   315.00       2.05 -999.99    2.05    0.00000     0.00  LINEAR    2.06007E+02    11.85    0.00000E+00     0.00
   65.00   315.00      -8.85 -999.99   -8.85    0.00000     0.00  LINEAR    5.87571E+01    11.28    0.00000E+00     0.00
   70.00   315.00     -28.91 -999.99  -28.91    0.00000     0.00  LINEAR    5.83472E+00   -16.49    0.00000E+00     0.00
   75.00   315.00     -41.59 -999.99  -41.59    0.00000     0.00  LINEAR    1.35484E+00  -152.95    0.00000E+00     0.00
   80.00   315.00     -20.67 -999.99  -20.67    0.00000     0.00  LINEAR    1.50752E+01     9.76    0.00000E+00     0.00
   85.00   315.00      -9.97 -999.99   -9.97    0.00000     0.00  LINEAR    5.16723E+01    14.96    0.00000E+00     0.00
   90.00   315.00     -16.04 -999.99  -16.04    0.00000     0.00  LINEAR    2.56735E+01    38.23    0.00000E+00     0.00
    0.00   320.00    -999.99 -999.99 -999.99    0.00000     0.00            0.00000E+00     0.00    0.00000E+00     0.00
    5.00   320.00     -21.28 -999.99  -21.28    0.00000     0.00  LINEAR    1.40435E+01  -174.45    0.00000E+00     0.00
   10.00   320.00      -5.35 -999.99   -5.35    0.00000     0.00  LINEAR    8.79216E+01     5.69    0.00000E+00     0.00
   15.00   320.00       3.01 -999.99    3.01    0.00000     0.00  LINEAR    2.30163E+02  -174.69    0.00000E+00     0.00
   20.00   320.00      -9.51 -999.99   -9.51    0.00000     0.00  LINEAR    5.44415E+01  -176.05    0.00000E+00     0.00
   25.00   320.00     -30.01 -999.99  -30.01    0.00000     0.00  LINEAR    5.14203E+00  -165.74    0.00000E+00     0.00
   30.00   320.00     -10.99 -999.99  -10.99    0.00000     0.00  LINEAR    4.59214E+01     6.48    0.00000E+00     0.00
   35.00   320.00      -1.34 -999.99   -1.34    0.00000     0.00  LINEAR    1.39482E+02     6.58    0.00000E+00     0.00
   40.00   320.00     -32.40 -999.99  -32.40    0.00000     0.00  LINEAR    3.90301E+00  -119.86    0.00000E+00     0.00
   45.00   320.00       3.64 -999.99    3.64    0.00000     0.00  LINEAR    2.47638E+02     5.71    0.00000E+00     0.00
   50.00   320.00      -5.25 -999.99   -5.25    0.00000     0.00  LINEAR    8.89644E+01    10.94    0.00000E+00     0.00
   55.00   320.00     -20.26 -999.99  -20.26    0.00000     0.00  LINEAR    1.57907E+01   140.91    0.00000E+00     0.00
   60.00   320.00     -16.97 -999.99  -16.97    0.00000     0.00  LINEAR    2.30816E+01    21.12    0.00000E+00     0.00
   65.00   320.00     -16.62 -999.99  -16.62    0.00000     0.00  LINEAR    2.40306E+01  -163.57    0.00000E+00     0.00
   70.00   320.00     -22.07 -999.99  -22.07    0.00000     0.00  LINEAR    1.28265E+01   -11.56    0.00000E+00     0.00
   75.00   320.00     -18.88 -999.99  -18.88    0.00000     0.00  LINEAR    1.85192E+01     3.53    0.00000E+00     0.00
   80.00   320.00     -26.88 -999.99  -26.88    0.00000     0.00  LINEAR    7.36825E+00  -156.04    0.00000E+00     0.00
   85.00   320.00     -24.69 -999.99  -24.69    0.00000     0.00  LINEAR    9.48389E+00  -158.90    0.00000E+00     0.00
   90.00   320.00     -35.25 -999.99  -35.25    0.00000     0.00  LINEAR    2.81247E+00  -144.88    0.00000E+00     0.00
    0.00   325.00    -999.99 -999.99 -999.99    0.00000     0.00            0.00000E+00     0.00    0.00000E+00     0.00
    5.00   325.00     -33.67 -999.99  -33.67    0.00000     0.00  LINEAR    3.37217E+00  -175.06    0.00000E+00     0.00
   10.00   325.00       0.21 -999.99    0.21    0.00000     0.00  LINEAR    1.66820E+02     5.70    0.00000E+00     0.00
   15.00   325.00      -3.27 -999.99   -3.27    0.00000     0.00  LINEAR    1.11773E+02  -174.98    0.00000E+00     0.00
   20.00   325.00     -15.23 -999.99  -15.23    0.00000     0.00  LINEAR    2.81784E+01     6.91    0.00000E+00     0.00
   25.00   325.00      -9.64 -999.99   -9.64    0.00000     0.00  LINEAR    5.36568E+01     4.00    0.00000E+00     0.00
   30.00   325.00     -10.50 -999.99  -10.50    0.00000     0.00  LINEAR    4.86153E+01     6.92    0.00000E+00     0.00
   35.00   325.00     -23.15 -999.99  -23.15    0.00000     0.00  LINEAR    1.13249E+01     2.16    0.00000E+00     0.00
   40.00   325.00     -22.65 -999.99  -22.65    0.00000     0.00  LINEAR    1.19930E+01  -136.55    0.00000E+00     0.00
   45.00   325.00       7.42 -999.99    7.42    0.00000     0.00  LINEAR    3.82461E+02     6.12    0.00000E+00     0.00
   50.00   325.00      -1.70 -999.99   -1.70    0.00000     0.00  LINEAR    1.33848E+02    10.06    0.00000E+00     0.00
   55.00   325.00     -22.44 -999.99  -22.44    0.00000     0.00  LINEAR    1.22973E+01   145.96    0.00000E+00     0.00
   60.00   325.00      -9.10 -999.99   -9.10    0.00000     0.00  LINEAR    5.70773E+01    12.80    0.00000E+00     0.00
   65.00   325.00     -25.45 -999.99  -25.45    0.00000     0.00  LINEAR    8.68870E+00    17.71    0.00000E+00     0.00
   70.00   325.00     -50.33 -999.99  -50.33    0.00000     0.00  LINEAR    4.95631E-01    50.80    0.00000E+00     0.00
   75.00   325.00     -27.40 -999.99  -27.40    0.00000     0.00  LINEAR    6.94229E+00   175.92    0.00000E+00     0.00
   80.00   325.00     -23.66 -999.99  -23.66    0.00000     0.00  LINEAR    1.06776E+01    24.01    0.00000E+00     0.00
   85.00   325.00     -12.87 -999.99  -12.87    0.00000     0.00  LINEAR    3.70061E+01    19.32    0.00000E+00     0.00
   90.00   325.00     -20.33 -999.99  -20.33    0.00000     0.00  LINEAR    1.56622E+01    45.84    0.00000E+00     0.00
    0.00   330.00    -999.99 -999.99 -999.99    0.00000     0.00            0.00000E+00     0.00    0.00000E+00     0.00
    5.00   330.00     -26.11 -999.99  -26.11    0.00000     0.00  LINEAR    8.05560E+00     6.08    0.00000E+00     0.00
   10.00   330.00       3.96 -999.99    3.96    0.00000     0.00  LINEAR    2.56898E+02     5.70    0.00000E+00     0.00
   15.00   330.00     -24.98 -999.99  -24.98    0.00000     0.00  LINEAR    9.17459E+00    12.24    0.00000E+00     0.00
   20.00   330.00      -7.55 -999.99   -7.55    0.00000     0.00  LINEAR    6.82282E+01     5.62    0.00000E+00     0.00
   25.00   330.00     -15.67 -999.99  -15.67    0.00000     0.00  LINEAR    2.67860E+01     2.74    0.00000E+00     0.00
   30.00   330.00     -12.04 -999.99  -12.04    0.00000     0.00  LINEAR    4.07186E+01  -176.24    0.00000E+00     0.00
   35.00   330.00     -13.20 -999.99  -13.20    0.00000     0.00  LINEAR    3.56308E+01  -167.20    0.00000E+00     0.00
   40.00   330.00     -18.72 -999.99  -18.72    0.00000     0.00  LINEAR    1.88725E+01  -139.60    0.00000E+00     0.00
   45.00   330.00       3.62 -999.99    3.62    0.00000     0.00  LINEAR    2.46911E+02     6.13    0.00000E+00     0.00
   50.00   330.00     -13.38 -999.99  -13.38    0.00000     0.00  LINEAR    3.49011E+01    17.44    0.00000E+00     0.00
   55.00   330.00      -6.89 -999.99   -6.89    0.00000     0.00  LINEAR    7.36459E+01    12.33    0.00000E+00     0.00
   60.00   330.00      -3.80 -999.99   -3.80    0.00000     0.00  LINEAR    1.05110E+02     9.62    0.00000E+00     0.00
   65.00   330.00     -17.04 -999.99  -17.04    0.00000     0.00  LINEAR    2.28850E+01  -145.42    0.00000E+00     0.00
   70.00   330.00     -13.47 -999.99  -13.47    0.00000     0.00  LINEAR    3.45219E+01   -19.64    0.00000E+00     0.00
   75.00   330.00     -13.35 -999.99  -13.35    0.00000     0.00  LINEAR    3.50177E+01    -0.50    0.00000E+00     0.00
   80.00   330.00     -17.73 -999.99  -17.73    0.00000     0.00  LINEAR    2.11367E+01  -176.43    0.00000E+00     0.00
   85.00   330.00     -16.14 -999.99  -16.14    0.00000     0.00  LINEAR    2.53884E+01  -174.52    0.00000E+00     0.00
   90.00   330.00     -26.43 -999.99  -26.43    0.00000     0.00  LINEAR    7.76259E+00  -160.71    0.00000E+00     0.00
    0.00   335.00    -999.99 -999.99 -999.99    0.00000     0.00            0.00000E+00     0.00    0.00000E+00     0.00
    5.00   335.00     -18.42 -999.99  -18.42    0.00000     0.00  LINEAR    1.95342E+01     5.89    0.00000E+00     0.00
   10.00   335.00       6.64 -999.99    6.64    0.00000     0.00  LINEAR    3.49682E+02     5.70    0.00000E+00     0.00
   15.00   335.00      -3.75 -999.99   -3.75    0.00000     0.00  LINEAR    1.05707E+02     6.13    0.00000E+00     0.00
   20.00   335.00     -12.38 -999.99  -12.38    0.00000     0.00  LINEAR    3.91396E+01     5.25    0.00000E+00     0.00
   25.00   335.00     -15.36 -999.99  -15.36    0.00000     0.00  LINEAR    2.77737E+01  -173.03    0.00000E+00     0.00
   30.00   335.00      -8.71 -999.99   -8.71    0.00000     0.00  LINEAR    5.97489E+01  -175.27    0.00000E+00     0.00
   35.00   335.00      -6.24 -999.99   -6.24    0.00000     0.00  LINEAR    7.93563E+01    -0.27    0.00000E+00     0.00
   40.00   335.00     -17.55 -999.99  -17.55    0.00000     0.00  LINEAR    2.15892E+01  -136.43    0.00000E+00     0.00
   45.00   335.00     -11.29 -999.99  -11.29    0.00000     0.00  LINEAR    4.43732E+01     4.45    0.00000E+00     0.00
   50.00   335.00     -16.90 -999.99  -16.90    0.00000     0.00  LINEAR    2.32480E+01   179.17    0.00000E+00     0.00
   55.00   335.00     -10.73 -999.99  -10.73    0.00000     0.00  LINEAR    4.73331E+01     9.09    0.00000E+00     0.00
   60.00   335.00      -9.80 -999.99   -9.80    0.00000     0.00  LINEAR    5.27023E+01  -165.16    0.00000E+00     0.00
   65.00   335.00      -3.60 -999.99   -3.60    0.00000     0.00  LINEAR    1.07513E+02  -158.72    0.00000E+00     0.00
   70.00   335.00     -13.57 -999.99  -13.57    0.00000     0.00  LINEAR    3.41194E+01   -25.47    0.00000E+00     0.00
   75.00   335.00     -21.24 -999.99  -21.24    0.00000     0.00  LINEAR    1.41054E+01   176.18    0.00000E+00     0.00
   80.00   335.00      -9.92 -999.99   -9.92    0.00000     0.00  LINEAR    5.19718E+01    25.62    0.00000E+00     0.00
   85.00   335.00       2.24 -999.99    2.24    0.00000     0.00  LINEAR    2.10732E+02    18.94    0.00000E+00     0.00
   90.00   335.00      -4.49 -999.99   -4.49    0.00000     0.00  LINEAR    9.71087E+01    45.39    0.00000E+00     0.00
    0.00   340.00    -999.99 -999.99 -999.99    0.00000     0.00            0.00000E+00     0.00    0.00000E+00     0.00
    5.00   340.00     -14.60 -999.99  -14.60    0.00000     0.00  LINEAR    3.03036E+01     5.84    0.00000E+00     0.00
   10.00   340.00       8.57 -999.99    8.57    0.00000     0.00  LINEAR    4.36826E+02     5.70    0.00000E+00     0.00
   15.00   340.00       0.12 -999.99    0.12    0.00000     0.00  LINEAR    1.65087E+02     5.92    0.00000E+00     0.00
   20.00   340.00     -12.65 -999.99  -12.65    0.00000     0.00  LINEAR    3.79509E+01  -174.12    0.00000E+00     0.00
   25.00   340.00     -17.16 -999.99  -17.16    0.00000     0.00  LINEAR    2.25653E+01  -174.50    0.00000E+00     0.00
   30.00   340.00     -38.39 -999.99  -38.39    0.00000     0.00  LINEAR    1.95825E+00  -169.08    0.00000E+00     0.00
   35.00   340.00       0.93 -999.99    0.93    0.00000     0.00  LINEAR    1.81242E+02     2.07    0.00000E+00     0.00
   40.00   340.00     -18.04 -999.99  -18.04    0.00000     0.00  LINEAR    2.03910E+01  -131.97    0.00000E+00     0.00
   45.00   340.00     -20.97 -999.99  -20.97    0.00000     0.00  LINEAR    1.45540E+01  -168.32    0.00000E+00     0.00
   50.00   340.00     -26.84 -999.99  -26.84    0.00000     0.00  LINEAR    7.40411E+00     7.14    0.00000E+00     0.00
   55.00   340.00     -41.69 -999.99  -41.69    0.00000     0.00  LINEAR    1.34033E+00   -62.35    0.00000E+00     0.00
   60.00   340.00     -10.85 -999.99  -10.85    0.00000     0.00  LINEAR    4.66782E+01  -167.99    0.00000E+00     0.00
   65.00   340.00     -14.21 -999.99  -14.21    0.00000     0.00  LINEAR    3.16990E+01  -155.93    0.00000E+00     0.00
   70.00   340.00     -25.41 -999.99  -25.41    0.00000     0.00  LINEAR    8.73458E+00   169.07    0.00000E+00     0.00
   75.00   340.00      -5.98 -999.99   -5.98    0.00000     0.00  LINEAR    8.17654E+01   177.92    0.00000E+00     0.00
   80.00   340.00      -3.83 -999.99   -3.83    0.00000     0.00  LINEAR    1.04743E+02    20.30    0.00000E+00     0.00
   85.00   340.00       6.13 -999.99    6.13    0.00000     0.00  LINEAR    3.29604E+02    18.11    0.00000E+00     0.00
   90.00   340.00      -0.88 -999.99   -0.88    0.00000     0.00  LINEAR    1.47137E+02    44.78    0.00000E+00     0.00
    0.00   345.00    -999.99 -999.99 -999.99    0.00000     0.00            0.00000E+00     0.00    0.00000E+00     0.00
    5.00   345.00     -12.27 -999.99  -12.27    0.00000     0.00  LINEAR    3.96154E+01     5.82    0.00000E+00     0.00
   10.00   345.00       9.94 -999.99    9.94    0.00000     0.00  LINEAR    5.11248E+02     5.70    0.00000E+00     0.00
   15.00   345.00       1.31 -999.99    1.31    0.00000     0.00  LINEAR    1.89257E+02     5.86    0.00000E+00     0.00
   20.00   345.00      -2.39 -999.99   -2.39    0.00000     0.00  LINEAR    1.23654E+02  -174.41    0.00000E+00     0.00
   25.00   345.00      -7.87 -999.99   -7.87    0.00000     0.00  LINEAR    6.57794E+01     6.01    0.00000E+00     0.00
   30.00   345.00     -34.11 -999.99  -34.11    0.00000     0.00  LINEAR    3.20863E+00   -26.33    0.00000E+00     0.00
   35.00   345.00      -5.93 -999.99   -5.93    0.00000     0.00  LINEAR    8.22269E+01    -3.69    0.00000E+00     0.00
   40.00   345.00     -19.46 -999.99  -19.46    0.00000     0.00  LINEAR    1.73193E+01  -131.45    0.00000E+00     0.00
   45.00   345.00     -23.37 -999.99  -23.37    0.00000     0.00  LINEAR    1.10437E+01     5.14    0.00000E+00     0.00
   50.00   345.00     -16.74 -999.99  -16.74    0.00000     0.00  LINEAR    2.37040E+01     4.66    0.00000E+00     0.00
   55.00   345.00     -21.69 -999.99  -21.69    0.00000     0.00  LINEAR    1.33954E+01    11.31    0.00000E+00     0.00
   60.00   345.00      -9.63 -999.99   -9.63    0.00000     0.00  LINEAR    5.37443E+01    14.29    0.00000E+00     0.00
   65.00   345.00     -31.00 -999.99  -31.00    0.00000     0.00  LINEAR    4.58819E+00   145.84    0.00000E+00     0.00
   70.00   345.00     -20.61 -999.99  -20.61    0.00000     0.00  LINEAR    1.51759E+01     6.73    0.00000E+00     0.00
   75.00   345.00     -12.78 -999.99  -12.78    0.00000     0.00  LINEAR    3.73697E+01     4.75    0.00000E+00     0.00
   80.00   345.00     -17.82 -999.99  -17.82    0.00000     0.00  LINEAR    2.09271E+01  -142.01    0.00000E+00     0.00
   85.00   345.00     -10.75 -999.99  -10.75    0.00000     0.00  LINEAR    4.72242E+01  -153.02    0.00000E+00     0.00
   90.00   345.00     -21.88 -999.99  -21.88    0.00000     0.00  LINEAR    1.31080E+01  -132.68    0.00000E+00     0.00
    0.00   350.00    -999.99 -999.99 -999.99    0.00000     0.00            0.00000E+00     0.00    0.00000E+00     0.00
    5.00   350.00     -10.83 -999.99  -10.83    0.00000     0.00  LINEAR    4.68021E+01     5.81    0.00000E+00     0.00
   10.00   350.00      10.85 -999.99   10.85    0.00000     0.00  LINEAR    5.67696E+02     5.70    0.00000E+00     0.00
   15.00   350.00       1.35 -999.99    1.35    0.00000     0.00  LINEAR    1.90259E+02     5.85    0.00000E+00     0.00
   20.00   350.00       1.30 -999.99    1.30    0.00000     0.00  LINEAR    1.89151E+02  -174.48    0.00000E+00     0.00
   25.00   350.00       1.46 -999.99    1.46    0.00000     0.00  LINEAR    1.92673E+02     5.78    0.00000E+00     0.00
   30.00   350.00      -2.43 -999.99   -2.43    0.00000     0.00  LINEAR    1.23097E+02  -172.93    0.00000E+00     0.00
   35.00   350.00       2.23 -999.99    2.23    0.00000     0.00  LINEAR    2.10354E+02  -170.49    0.00000E+00     0.00
   40.00   350.00     -21.00 -999.99  -21.00    0.00000     0.00  LINEAR    1.45009E+01  -137.14    0.00000E+00     0.00
   45.00   350.00     -33.49 -999.99  -33.49    0.00000     0.00  LINEAR    3.44510E+00   176.45    0.00000E+00     0.00
   50.00   350.00     -33.26 -999.99  -33.26    0.00000     0.00  LINEAR    3.53779E+00    -6.19    0.00000E+00     0.00
   55.00   350.00     -29.25 -999.99  -29.25    0.00000     0.00  LINEAR    5.61381E+00    20.21    0.00000E+00     0.00
   60.00   350.00     -18.64 -999.99  -18.64    0.00000     0.00  LINEAR    1.90476E+01    19.36    0.00000E+00     0.00
   65.00   350.00     -15.79 -999.99  -15.79    0.00000     0.00  LINEAR    2.64436E+01  -174.24    0.00000E+00     0.00
   70.00   350.00     -17.35 -999.99  -17.35    0.00000     0.00  LINEAR    2.20906E+01     1.02    0.00000E+00     0.00
   75.00   350.00      -6.94 -999.99   -6.94    0.00000     0.00  LINEAR    7.32554E+01     2.66    0.00000E+00     0.00
   80.00   350.00      -9.22 -999.99   -9.22    0.00000     0.00  LINEAR    5.63317E+01  -150.46    0.00000E+00     0.00
   85.00   350.00      -0.40 -999.99   -0.40    0.00000     0.00  LINEAR    1.55382E+02  -157.77    0.00000E+00     0.00
   90.00   350.00      -8.64 -999.99   -8.64    0.00000     0.00  LINEAR    6.01781E+01  -133.26    0.00000E+00     0.00
    0.00   355.00    -999.99 -999.99 -999.99    0.00000     0.00            0.00000E+00     0.00    0.00000E+00     0.00
    5.00   355.00     -10.02 -999.99  -10.02    0.00000     0.00  LINEAR    5.13386E+01     5.80    0.00000E+00     0.00
   10.00   355.00      11.37 -999.99   11.37    0.00000     0.00  LINEAR    6.02771E+02     5.70    0.00000E+00     0.00
   15.00   355.00       1.02 -999.99    1.02    0.00000     0.00  LINEAR    1.83050E+02     5.86    0.00000E+00     0.00
   20.00   355.00       2.84 -999.99    2.84    0.00000     0.00  LINEAR    2.25737E+02  -174.51    0.00000E+00     0.00
   25.00   355.00       5.19 -999.99    5.19    0.00000     0.00  LINEAR    2.95897E+02     5.71    0.00000E+00     0.00
   30.00   355.00       5.40 -999.99    5.40    0.00000     0.00  LINEAR    3.03208E+02  -173.61    0.00000E+00     0.00
   35.00   355.00       9.96 -999.99    9.96    0.00000     0.00  LINEAR    5.12548E+02  -172.76    0.00000E+00     0.00
   40.00   355.00     -21.91 -999.99  -21.91    0.00000     0.00  LINEAR    1.30663E+01  -144.89    0.00000E+00     0.00
   45.00   355.00      -8.74 -999.99   -8.74    0.00000     0.00  LINEAR    5.95077E+01  -174.18    0.00000E+00     0.00
   50.00   355.00     -23.17 -999.99  -23.17    0.00000     0.00  LINEAR    1.13038E+01  -167.75    0.00000E+00     0.00
   55.00   355.00     -10.67 -999.99  -10.67    0.00000     0.00  LINEAR    4.76741E+01  -169.44    0.00000E+00     0.00
   60.00   355.00     -13.04 -999.99  -13.04    0.00000     0.00  LINEAR    3.62902E+01  -163.61    0.00000E+00     0.00
   65.00   355.00      -4.51 -999.99   -4.51    0.00000     0.00  LINEAR    9.68612E+01    13.71    0.00000E+00     0.00
   70.00   355.00      -8.21 -999.99   -8.21    0.00000     0.00  LINEAR    6.32337E+01   159.60    0.00000E+00     0.00
   75.00   355.00      -1.87 -999.99   -1.87    0.00000     0.00  LINEAR    1.31255E+02   177.50    0.00000E+00     0.00
   80.00   355.00      -3.92 -999.99   -3.92    0.00000     0.00  LINEAR    1.03676E+02    19.42    0.00000E+00     0.00
   85.00   355.00       3.55 -999.99    3.55    0.00000     0.00  LINEAR    2.44958E+02    18.19    0.00000E+00     0.00
   90.00   355.00      -3.96 -999.99   -3.96    0.00000     0.00  LINEAR    1.03149E+02    45.93    0.00000E+00     0.00






 ***** DATA CARD NO. 16   EN   0     0     0     0  0.00000E+00  0.00000E+00  0.00000E+00  0.00000E+00  0.00000E+00  0.00000E+00

 RUN TIME =     0.141
