1



                                 *********************************************

                                    NUMERICAL ELECTROMAGNETICS CODE (NEC-2D)

                                 *********************************************




                                     - - - - COMMENTS - - - -


                                                                                                     
                                                                                                     




                                 - - - STRUCTURE SPECIFICATION - - -

                                     COORDINATES MUST BE INPUT IN
                                     METERS OR BE SCALED TO METERS
                                     BEFORE STRUCTURE INPUT IS ENDED


  WIRE                                                                               NO. OF    FIRST  LAST     TAG
  NO.        X1         Y1         Z1          X2         Y2         Z2      RADIUS   SEG.     SEG.   SEG.     NO.
     1   -7.50000   -5.00000   -5.00000    -7.50000   -5.00000    5.00000    0.00100     20        1    20     101
     2   -2.50000   -5.00000   -5.00000    -2.50000   -5.00000    5.00000    0.00100     20       21    40     102
     3    2.50000   -5.00000   -5.00000     2.50000   -5.00000    5.00000    0.00100     20       41    60     103
     4    7.50000   -5.00000   -5.00000     7.50000   -5.00000    5.00000    0.00100     20       61    80     104
     5   -7.50000    0.00000   -5.00000    -7.50000    0.00000    5.00000    0.00100     20       81   100     201
     6   -2.50000    0.00000   -5.00000    -2.50000    0.00000    5.00000    0.00100     20      101   120     202
     7    2.50000    0.00000   -5.00000     2.50000    0.00000    5.00000    0.00100     20      121   140     203
     8    7.50000    0.00000   -5.00000     7.50000    0.00000    5.00000    0.00100     20      141   160     204
     9   -7.50000    5.00000   -5.00000    -7.50000    5.00000    5.00000    0.00100     20      161   180     301
    10   -2.50000    5.00000   -5.00000    -2.50000    5.00000    5.00000    0.00100     20      181   200     302
    11    2.50000    5.00000   -5.00000     2.50000    5.00000    5.00000    0.00100     20      201   220     303
    12    7.50000    5.00000   -5.00000     7.50000    5.00000    5.00000    0.00100     20      221   240     304

   TOTAL SEGMENTS USED=  240     NO. SEG. IN A SYMMETRIC CELL=  240     SYMMETRY FLAG=  0


         - MULTIPLE WIRE JUNCTIONS -
 JUNCTION    SEGMENTS  (- FOR END 1, + FOR END 2)
  NONE




                                 - - - - SEGMENTATION DATA - - - -

                                        COORDINATES IN METERS

                         I+ AND I- INDICATE THE SEGMENTS BEFORE AND AFTER I


  SEG.   COORDINATES OF SEG. CENTER     SEG.     ORIENTATION ANGLES    WIRE    CONNECTION DATA   TAG
  NO.       X         Y         Z       LENGTH     ALPHA     BETA      RADIUS    I-   I    I+    NO.
     1  -7.50000  -5.00000  -4.75000   0.50000   90.00000   0.00000   0.00100     0    1    2    101
     2  -7.50000  -5.00000  -4.25000   0.50000   90.00000   0.00000   0.00100     1    2    3    101
     3  -7.50000  -5.00000  -3.75000   0.50000   90.00000   0.00000   0.00100     2    3    4    101
     4  -7.50000  -5.00000  -3.25000   0.50000   90.00000   0.00000   0.00100     3    4    5    101
     5  -7.50000  -5.00000  -2.75000   0.50000   90.00000   0.00000   0.00100     4    5    6    101
     6  -7.50000  -5.00000  -2.25000   0.50000   90.00000   0.00000   0.00100     5    6    7    101
     7  -7.50000  -5.00000  -1.75000   0.50000   90.00000   0.00000   0.00100     6    7    8    101
     8  -7.50000  -5.00000  -1.25000   0.50000   90.00000   0.00000   0.00100     7    8    9    101
     9  -7.50000  -5.00000  -0.75000   0.50000   90.00000   0.00000   0.00100     8    9   10    101
    10  -7.50000  -5.00000  -0.25000   0.50000   90.00000   0.00000   0.00100     9   10   11    101
    11  -7.50000  -5.00000   0.25000   0.50000   90.00000   0.00000   0.00100    10   11   12    101
    12  -7.50000  -5.00000   0.75000   0.50000   90.00000   0.00000   0.00100    11   12   13    101
    13  -7.50000  -5.00000   1.25000   0.50000   90.00000   0.00000   0.00100    12   13   14    101
    14  -7.50000  -5.00000   1.75000   0.50000   90.00000   0.00000   0.00100    13   14   15    101
    15  -7.50000  -5.00000   2.25000   0.50000   90.00000   0.00000   0.00100    14   15   16    101
    16  -7.50000  -5.00000   2.75000   0.50000   90.00000   0.00000   0.00100    15   16   17    101
    17  -7.50000  -5.00000   3.25000   0.50000   90.00000   0.00000   0.00100    16   17   18    101
    18  -7.50000  -5.00000   3.75000   0.50000   90.00000   0.00000   0.00100    17   18   19    101
    19  -7.50000  -5.00000   4.25000   0.50000   90.00000   0.00000   0.00100    18   19   20    101
    20  -7.50000  -5.00000   4.75000   0.50000   90.00000   0.00000   0.00100    19   20    0    101
    21  -2.50000  -5.00000  -4.75000   0.50000   90.00000   0.00000   0.00100     0   21   22    102
    22  -2.50000  -5.00000  -4.25000   0.50000   90.00000   0.00000   0.00100    21   22   23    102
    23  -2.50000  -5.00000  -3.75000   0.50000   90.00000   0.00000   0.00100    22   23   24    102
    24  -2.50000  -5.00000  -3.25000   0.50000   90.00000   0.00000   0.00100    23   24   25    102
    25  -2.50000  -5.00000  -2.75000   0.50000   90.00000   0.00000   0.00100    24   25   26    102
    26  -2.50000  -5.00000  -2.25000   0.50000   90.00000   0.00000   0.00100    25   26   27    102
    27  -2.50000  -5.00000  -1.75000   0.50000   90.00000   0.00000   0.00100    26   27   28    102
    28  -2.50000  -5.00000  -1.25000   0.50000   90.00000   0.00000   0.00100    27   28   29    102
    29  -2.50000  -5.00000  -0.75000   0.50000   90.00000   0.00000   0.00100    28   29   30    102
    30  -2.50000  -5.00000  -0.25000   0.50000   90.00000   0.00000   0.00100    29   30   31    102
    31  -2.50000  -5.00000   0.25000   0.50000   90.00000   0.00000   0.00100    30   31   32    102
    32  -2.50000  -5.00000   0.75000   0.50000   90.00000   0.00000   0.00100    31   32   33    102
    33  -2.50000  -5.00000   1.25000   0.50000   90.00000   0.00000   0.00100    32   33   34    102
    34  -2.50000  -5.00000   1.75000   0.50000   90.00000   0.00000   0.00100    33   34   35    102
    35  -2.50000  -5.00000   2.25000   0.50000   90.00000   0.00000   0.00100    34   35   36    102
    36  -2.50000  -5.00000   2.75000   0.50000   90.00000   0.00000   0.00100    35   36   37    102
    37  -2.50000  -5.00000   3.25000   0.50000   90.00000   0.00000   0.00100    36   37   38    102
    38  -2.50000  -5.00000   3.75000   0.50000   90.00000   0.00000   0.00100    37   38   39    102
    39  -2.50000  -5.00000   4.25000   0.50000   90.00000   0.00000   0.00100    38   39   40    102
    40  -2.50000  -5.00000   4.75000   0.50000   90.00000   0.00000   0.00100    39   40    0    102
    41   2.50000  -5.00000  -4.75000   0.50000   90.00000   0.00000   0.00100     0   41   42    103
    42   2.50000  -5.00000  -4.25000   0.50000   90.00000   0.00000   0.00100    41   42   43    103
    43   2.50000  -5.00000  -3.75000   0.50000   90.00000   0.00000   0.00100    42   43   44    103
    44   2.50000  -5.00000  -3.25000   0.50000   90.00000   0.00000   0.00100    43   44   45    103
    45   2.50000  -5.00000  -2.75000   0.50000   90.00000   0.00000   0.00100    44   45   46    103
    46   2.50000  -5.00000  -2.25000   0.50000   90.00000   0.00000   0.00100    45   46   47    103
    47   2.50000  -5.00000  -1.75000   0.50000   90.00000   0.00000   0.00100    46   47   48    103
    48   2.50000  -5.00000  -1.25000   0.50000   90.00000   0.00000   0.00100    47   48   49    103
    49   2.50000  -5.00000  -0.75000   0.50000   90.00000   0.00000   0.00100    48   49   50    103
    50   2.50000  -5.00000  -0.25000   0.50000   90.00000   0.00000   0.00100    49   50   51    103
    51   2.50000  -5.00000   0.25000   0.50000   90.00000   0.00000   0.00100    50   51   52    103
    52   2.50000  -5.00000   0.75000   0.50000   90.00000   0.00000   0.00100    51   52   53    103
    53   2.50000  -5.00000   1.25000   0.50000   90.00000   0.00000   0.00100    52   53   54    103
    54   2.50000  -5.00000   1.75000   0.50000   90.00000   0.00000   0.00100    53   54   55    103
    55   2.50000  -5.00000   2.25000   0.50000   90.00000   0.00000   0.00100    54   55   56    103
    56   2.50000  -5.00000   2.75000   0.50000   90.00000   0.00000   0.00100    55   56   57    103
    57   2.50000  -5.00000   3.25000   0.50000   90.00000   0.00000   0.00100    56   57   58    103
    58   2.50000  -5.00000   3.75000   0.50000   90.00000   0.00000   0.00100    57   58   59    103
    59   2.50000  -5.00000   4.25000   0.50000   90.00000   0.00000   0.00100    58   59   60    103
    60   2.50000  -5.00000   4.75000   0.50000   90.00000   0.00000   0.00100    59   60    0    103
    61   7.50000  -5.00000  -4.75000   0.50000   90.00000   0.00000   0.00100     0   61   62    104
    62   7.50000  -5.00000  -4.25000   0.50000   90.00000   0.00000   0.00100    61   62   63    104
    63   7.50000  -5.00000  -3.75000   0.50000   90.00000   0.00000   0.00100    62   63   64    104
    64   7.50000  -5.00000  -3.25000   0.50000   90.00000   0.00000   0.00100    63   64   65    104
    65   7.50000  -5.00000  -2.75000   0.50000   90.00000   0.00000   0.00100    64   65   66    104
    66   7.50000  -5.00000  -2.25000   0.50000   90.00000   0.00000   0.00100    65   66   67    104
    67   7.50000  -5.00000  -1.75000   0.50000   90.00000   0.00000   0.00100    66   67   68    104
    68   7.50000  -5.00000  -1.25000   0.50000   90.00000   0.00000   0.00100    67   68   69    104
    69   7.50000  -5.00000  -0.75000   0.50000   90.00000   0.00000   0.00100    68   69   70    104
    70   7.50000  -5.00000  -0.25000   0.50000   90.00000   0.00000   0.00100    69   70   71    104
    71   7.50000  -5.00000   0.25000   0.50000   90.00000   0.00000   0.00100    70   71   72    104
    72   7.50000  -5.00000   0.75000   0.50000   90.00000   0.00000   0.00100    71   72   73    104
    73   7.50000  -5.00000   1.25000   0.50000   90.00000   0.00000   0.00100    72   73   74    104
    74   7.50000  -5.00000   1.75000   0.50000   90.00000   0.00000   0.00100    73   74   75    104
    75   7.50000  -5.00000   2.25000   0.50000   90.00000   0.00000   0.00100    74   75   76    104
    76   7.50000  -5.00000   2.75000   0.50000   90.00000   0.00000   0.00100    75   76   77    104
    77   7.50000  -5.00000   3.25000   0.50000   90.00000   0.00000   0.00100    76   77   78    104
    78   7.50000  -5.00000   3.75000   0.50000   90.00000   0.00000   0.00100    77   78   79    104
    79   7.50000  -5.00000   4.25000   0.50000   90.00000   0.00000   0.00100    78   79   80    104
    80   7.50000  -5.00000   4.75000   0.50000   90.00000   0.00000   0.00100    79   80    0    104
    81  -7.50000   0.00000  -4.75000   0.50000   90.00000   0.00000   0.00100     0   81   82    201
    82  -7.50000   0.00000  -4.25000   0.50000   90.00000   0.00000   0.00100    81   82   83    201
    83  -7.50000   0.00000  -3.75000   0.50000   90.00000   0.00000   0.00100    82   83   84    201
    84  -7.50000   0.00000  -3.25000   0.50000   90.00000   0.00000   0.00100    83   84   85    201
    85  -7.50000   0.00000  -2.75000   0.50000   90.00000   0.00000   0.00100    84   85   86    201
    86  -7.50000   0.00000  -2.25000   0.50000   90.00000   0.00000   0.00100    85   86   87    201
    87  -7.50000   0.00000  -1.75000   0.50000   90.00000   0.00000   0.00100    86   87   88    201
    88  -7.50000   0.00000  -1.25000   0.50000   90.00000   0.00000   0.00100    87   88   89    201
    89  -7.50000   0.00000  -0.75000   0.50000   90.00000   0.00000   0.00100    88   89   90    201
    90  -7.50000   0.00000  -0.25000   0.50000   90.00000   0.00000   0.00100    89   90   91    201
    91  -7.50000   0.00000   0.25000   0.50000   90.00000   0.00000   0.00100    90   91   92    201
    92  -7.50000   0.00000   0.75000   0.50000   90.00000   0.00000   0.00100    91   92   93    201
    93  -7.50000   0.00000   1.25000   0.50000   90.00000   0.00000   0.00100    92   93   94    201
    94  -7.50000   0.00000   1.75000   0.50000   90.00000   0.00000   0.00100    93   94   95    201
    95  -7.50000   0.00000   2.25000   0.50000   90.00000   0.00000   0.00100    94   95   96    201
    96  -7.50000   0.00000   2.75000   0.50000   90.00000   0.00000   0.00100    95   96   97    201
    97  -7.50000   0.00000   3.25000   0.50000   90.00000   0.00000   0.00100    96   97   98    201
    98  -7.50000   0.00000   3.75000   0.50000   90.00000   0.00000   0.00100    97   98   99    201
    99  -7.50000   0.00000   4.25000   0.50000   90.00000   0.00000   0.00100    98   99  100    201
   100  -7.50000   0.00000   4.75000   0.50000   90.00000   0.00000   0.00100    99  100    0    201
   101  -2.50000   0.00000  -4.75000   0.50000   90.00000   0.00000   0.00100     0  101  102    202
   102  -2.50000   0.00000  -4.25000   0.50000   90.00000   0.00000   0.00100   101  102  103    202
   103  -2.50000   0.00000  -3.75000   0.50000   90.00000   0.00000   0.00100   102  103  104    202
   104  -2.50000   0.00000  -3.25000   0.50000   90.00000   0.00000   0.00100   103  104  105    202
   105  -2.50000   0.00000  -2.75000   0.50000   90.00000   0.00000   0.00100   104  105  106    202
   106  -2.50000   0.00000  -2.25000   0.50000   90.00000   0.00000   0.00100   105  106  107    202
   107  -2.50000   0.00000  -1.75000   0.50000   90.00000   0.00000   0.00100   106  107  108    202
   108  -2.50000   0.00000  -1.25000   0.50000   90.00000   0.00000   0.00100   107  108  109    202
   109  -2.50000   0.00000  -0.75000   0.50000   90.00000   0.00000   0.00100   108  109  110    202
   110  -2.50000   0.00000  -0.25000   0.50000   90.00000   0.00000   0.00100   109  110  111    202
   111  -2.50000   0.00000   0.25000   0.50000   90.00000   0.00000   0.00100   110  111  112    202
   112  -2.50000   0.00000   0.75000   0.50000   90.00000   0.00000   0.00100   111  112  113    202
   113  -2.50000   0.00000   1.25000   0.50000   90.00000   0.00000   0.00100   112  113  114    202
   114  -2.50000   0.00000   1.75000   0.50000   90.00000   0.00000   0.00100   113  114  115    202
   115  -2.50000   0.00000   2.25000   0.50000   90.00000   0.00000   0.00100   114  115  116    202
   116  -2.50000   0.00000   2.75000   0.50000   90.00000   0.00000   0.00100   115  116  117    202
   117  -2.50000   0.00000   3.25000   0.50000   90.00000   0.00000   0.00100   116  117  118    202
   118  -2.50000   0.00000   3.75000   0.50000   90.00000   0.00000   0.00100   117  118  119    202
   119  -2.50000   0.00000   4.25000   0.50000   90.00000   0.00000   0.00100   118  119  120    202
   120  -2.50000   0.00000   4.75000   0.50000   90.00000   0.00000   0.00100   119  120    0    202
   121   2.50000   0.00000  -4.75000   0.50000   90.00000   0.00000   0.00100     0  121  122    203
   122   2.50000   0.00000  -4.25000   0.50000   90.00000   0.00000   0.00100   121  122  123    203
   123   2.50000   0.00000  -3.75000   0.50000   90.00000   0.00000   0.00100   122  123  124    203
   124   2.50000   0.00000  -3.25000   0.50000   90.00000   0.00000   0.00100   123  124  125    203
   125   2.50000   0.00000  -2.75000   0.50000   90.00000   0.00000   0.00100   124  125  126    203
   126   2.50000   0.00000  -2.25000   0.50000   90.00000   0.00000   0.00100   125  126  127    203
   127   2.50000   0.00000  -1.75000   0.50000   90.00000   0.00000   0.00100   126  127  128    203
   128   2.50000   0.00000  -1.25000   0.50000   90.00000   0.00000   0.00100   127  128  129    203
   129   2.50000   0.00000  -0.75000   0.50000   90.00000   0.00000   0.00100   128  129  130    203
   130   2.50000   0.00000  -0.25000   0.50000   90.00000   0.00000   0.00100   129  130  131    203
   131   2.50000   0.00000   0.25000   0.50000   90.00000   0.00000   0.00100   130  131  132    203
   132   2.50000   0.00000   0.75000   0.50000   90.00000   0.00000   0.00100   131  132  133    203
   133   2.50000   0.00000   1.25000   0.50000   90.00000   0.00000   0.00100   132  133  134    203
   134   2.50000   0.00000   1.75000   0.50000   90.00000   0.00000   0.00100   133  134  135    203
   135   2.50000   0.00000   2.25000   0.50000   90.00000   0.00000   0.00100   134  135  136    203
   136   2.50000   0.00000   2.75000   0.50000   90.00000   0.00000   0.00100   135  136  137    203
   137   2.50000   0.00000   3.25000   0.50000   90.00000   0.00000   0.00100   136  137  138    203
   138   2.50000   0.00000   3.75000   0.50000   90.00000   0.00000   0.00100   137  138  139    203
   139   2.50000   0.00000   4.25000   0.50000   90.00000   0.00000   0.00100   138  139  140    203
   140   2.50000   0.00000   4.75000   0.50000   90.00000   0.00000   0.00100   139  140    0    203
   141   7.50000   0.00000  -4.75000   0.50000   90.00000   0.00000   0.00100     0  141  142    204
   142   7.50000   0.00000  -4.25000   0.50000   90.00000   0.00000   0.00100   141  142  143    204
   143   7.50000   0.00000  -3.75000   0.50000   90.00000   0.00000   0.00100   142  143  144    204
   144   7.50000   0.00000  -3.25000   0.50000   90.00000   0.00000   0.00100   143  144  145    204
   145   7.50000   0.00000  -2.75000   0.50000   90.00000   0.00000   0.00100   144  145  146    204
   146   7.50000   0.00000  -2.25000   0.50000   90.00000   0.00000   0.00100   145  146  147    204
   147   7.50000   0.00000  -1.75000   0.50000   90.00000   0.00000   0.00100   146  147  148    204
   148   7.50000   0.00000  -1.25000   0.50000   90.00000   0.00000   0.00100   147  148  149    204
   149   7.50000   0.00000  -0.75000   0.50000   90.00000   0.00000   0.00100   148  149  150    204
   150   7.50000   0.00000  -0.25000   0.50000   90.00000   0.00000   0.00100   149  150  151    204
   151   7.50000   0.00000   0.25000   0.50000   90.00000   0.00000   0.00100   150  151  152    204
   152   7.50000   0.00000   0.75000   0.50000   90.00000   0.00000   0.00100   151  152  153    204
   153   7.50000   0.00000   1.25000   0.50000   90.00000   0.00000   0.00100   152  153  154    204
   154   7.50000   0.00000   1.75000   0.50000   90.00000   0.00000   0.00100   153  154  155    204
   155   7.50000   0.00000   2.25000   0.50000   90.00000   0.00000   0.00100   154  155  156    204
   156   7.50000   0.00000   2.75000   0.50000   90.00000   0.00000   0.00100   155  156  157    204
   157   7.50000   0.00000   3.25000   0.50000   90.00000   0.00000   0.00100   156  157  158    204
   158   7.50000   0.00000   3.75000   0.50000   90.00000   0.00000   0.00100   157  158  159    204
   159   7.50000   0.00000   4.25000   0.50000   90.00000   0.00000   0.00100   158  159  160    204
   160   7.50000   0.00000   4.75000   0.50000   90.00000   0.00000   0.00100   159  160    0    204
   161  -7.50000   5.00000  -4.75000   0.50000   90.00000   0.00000   0.00100     0  161  162    301
   162  -7.50000   5.00000  -4.25000   0.50000   90.00000   0.00000   0.00100   161  162  163    301
   163  -7.50000   5.00000  -3.75000   0.50000   90.00000   0.00000   0.00100   162  163  164    301
   164  -7.50000   5.00000  -3.25000   0.50000   90.00000   0.00000   0.00100   163  164  165    301
   165  -7.50000   5.00000  -2.75000   0.50000   90.00000   0.00000   0.00100   164  165  166    301
   166  -7.50000   5.00000  -2.25000   0.50000   90.00000   0.00000   0.00100   165  166  167    301
   167  -7.50000   5.00000  -1.75000   0.50000   90.00000   0.00000   0.00100   166  167  168    301
   168  -7.50000   5.00000  -1.25000   0.50000   90.00000   0.00000   0.00100   167  168  169    301
   169  -7.50000   5.00000  -0.75000   0.50000   90.00000   0.00000   0.00100   168  169  170    301
   170  -7.50000   5.00000  -0.25000   0.50000   90.00000   0.00000   0.00100   169  170  171    301
   171  -7.50000   5.00000   0.25000   0.50000   90.00000   0.00000   0.00100   170  171  172    301
   172  -7.50000   5.00000   0.75000   0.50000   90.00000   0.00000   0.00100   171  172  173    301
   173  -7.50000   5.00000   1.25000   0.50000   90.00000   0.00000   0.00100   172  173  174    301
   174  -7.50000   5.00000   1.75000   0.50000   90.00000   0.00000   0.00100   173  174  175    301
   175  -7.50000   5.00000   2.25000   0.50000   90.00000   0.00000   0.00100   174  175  176    301
   176  -7.50000   5.00000   2.75000   0.50000   90.00000   0.00000   0.00100   175  176  177    301
   177  -7.50000   5.00000   3.25000   0.50000   90.00000   0.00000   0.00100   176  177  178    301
   178  -7.50000   5.00000   3.75000   0.50000   90.00000   0.00000   0.00100   177  178  179    301
   179  -7.50000   5.00000   4.25000   0.50000   90.00000   0.00000   0.00100   178  179  180    301
   180  -7.50000   5.00000   4.75000   0.50000   90.00000   0.00000   0.00100   179  180    0    301
   181  -2.50000   5.00000  -4.75000   0.50000   90.00000   0.00000   0.00100     0  181  182    302
   182  -2.50000   5.00000  -4.25000   0.50000   90.00000   0.00000   0.00100   181  182  183    302
   183  -2.50000   5.00000  -3.75000   0.50000   90.00000   0.00000   0.00100   182  183  184    302
   184  -2.50000   5.00000  -3.25000   0.50000   90.00000   0.00000   0.00100   183  184  185    302
   185  -2.50000   5.00000  -2.75000   0.50000   90.00000   0.00000   0.00100   184  185  186    302
   186  -2.50000   5.00000  -2.25000   0.50000   90.00000   0.00000   0.00100   185  186  187    302
   187  -2.50000   5.00000  -1.75000   0.50000   90.00000   0.00000   0.00100   186  187  188    302
   188  -2.50000   5.00000  -1.25000   0.50000   90.00000   0.00000   0.00100   187  188  189    302
   189  -2.50000   5.00000  -0.75000   0.50000   90.00000   0.00000   0.00100   188  189  190    302
   190  -2.50000   5.00000  -0.25000   0.50000   90.00000   0.00000   0.00100   189  190  191    302
   191  -2.50000   5.00000   0.25000   0.50000   90.00000   0.00000   0.00100   190  191  192    302
   192  -2.50000   5.00000   0.75000   0.50000   90.00000   0.00000   0.00100   191  192  193    302
   193  -2.50000   5.00000   1.25000   0.50000   90.00000   0.00000   0.00100   192  193  194    302
   194  -2.50000   5.00000   1.75000   0.50000   90.00000   0.00000   0.00100   193  194  195    302
   195  -2.50000   5.00000   2.25000   0.50000   90.00000   0.00000   0.00100   194  195  196    302
   196  -2.50000   5.00000   2.75000   0.50000   90.00000   0.00000   0.00100   195  196  197    302
   197  -2.50000   5.00000   3.25000   0.50000   90.00000   0.00000   0.00100   196  197  198    302
   198  -2.50000   5.00000   3.75000   0.50000   90.00000   0.00000   0.00100   197  198  199    302
   199  -2.50000   5.00000   4.25000   0.50000   90.00000   0.00000   0.00100   198  199  200    302
   200  -2.50000   5.00000   4.75000   0.50000   90.00000   0.00000   0.00100   199  200    0    302
   201   2.50000   5.00000  -4.75000   0.50000   90.00000   0.00000   0.00100     0  201  202    303
   202   2.50000   5.00000  -4.25000   0.50000   90.00000   0.00000   0.00100   201  202  203    303
   203   2.50000   5.00000  -3.75000   0.50000   90.00000   0.00000   0.00100   202  203  204    303
   204   2.50000   5.00000  -3.25000   0.50000   90.00000   0.00000   0.00100   203  204  205    303
   205   2.50000   5.00000  -2.75000   0.50000   90.00000   0.00000   0.00100   204  205  206    303
   206   2.50000   5.00000  -2.25000   0.50000   90.00000   0.00000   0.00100   205  206  207    303
   207   2.50000   5.00000  -1.75000   0.50000   90.00000   0.00000   0.00100   206  207  208    303
   208   2.50000   5.00000  -1.25000   0.50000   90.00000   0.00000   0.00100   207  208  209    303
   209   2.50000   5.00000  -0.75000   0.50000   90.00000   0.00000   0.00100   208  209  210    303
   210   2.50000   5.00000  -0.25000   0.50000   90.00000   0.00000   0.00100   209  210  211    303
   211   2.50000   5.00000   0.25000   0.50000   90.00000   0.00000   0.00100   210  211  212    303
   212   2.50000   5.00000   0.75000   0.50000   90.00000   0.00000   0.00100   211  212  213    303
   213   2.50000   5.00000   1.25000   0.50000   90.00000   0.00000   0.00100   212  213  214    303
   214   2.50000   5.00000   1.75000   0.50000   90.00000   0.00000   0.00100   213  214  215    303
   215   2.50000   5.00000   2.25000   0.50000   90.00000   0.00000   0.00100   214  215  216    303
   216   2.50000   5.00000   2.75000   0.50000   90.00000   0.00000   0.00100   215  216  217    303
   217   2.50000   5.00000   3.25000   0.50000   90.00000   0.00000   0.00100   216  217  218    303
   218   2.50000   5.00000   3.75000   0.50000   90.00000   0.00000   0.00100   217  218  219    303
   219   2.50000   5.00000   4.25000   0.50000   90.00000   0.00000   0.00100   218  219  220    303
   220   2.50000   5.00000   4.75000   0.50000   90.00000   0.00000   0.00100   219  220    0    303
   221   7.50000   5.00000  -4.75000   0.50000   90.00000   0.00000   0.00100     0  221  222    304
   222   7.50000   5.00000  -4.25000   0.50000   90.00000   0.00000   0.00100   221  222  223    304
   223   7.50000   5.00000  -3.75000   0.50000   90.00000   0.00000   0.00100   222  223  224    304
   224   7.50000   5.00000  -3.25000   0.50000   90.00000   0.00000   0.00100   223  224  225    304
   225   7.50000   5.00000  -2.75000   0.50000   90.00000   0.00000   0.00100   224  225  226    304
   226   7.50000   5.00000  -2.25000   0.50000   90.00000   0.00000   0.00100   225  226  227    304
   227   7.50000   5.00000  -1.75000   0.50000   90.00000   0.00000   0.00100   226  227  228    304
   228   7.50000   5.00000  -1.25000   0.50000   90.00000   0.00000   0.00100   227  228  229    304
   229   7.50000   5.00000  -0.75000   0.50000   90.00000   0.00000   0.00100   228  229  230    304
   230   7.50000   5.00000  -0.25000   0.50000   90.00000   0.00000   0.00100   229  230  231    304
   231   7.50000   5.00000   0.25000   0.50000   90.00000   0.00000   0.00100   230  231  232    304
   232   7.50000   5.00000   0.75000   0.50000   90.00000   0.00000   0.00100   231  232  233    304
   233   7.50000   5.00000   1.25000   0.50000   90.00000   0.00000   0.00100   232  233  234    304
   234   7.50000   5.00000   1.75000   0.50000   90.00000   0.00000   0.00100   233  234  235    304
   235   7.50000   5.00000   2.25000   0.50000   90.00000   0.00000   0.00100   234  235  236    304
   236   7.50000   5.00000   2.75000   0.50000   90.00000   0.00000   0.00100   235  236  237    304
   237   7.50000   5.00000   3.25000   0.50000   90.00000   0.00000   0.00100   236  237  238    304
   238   7.50000   5.00000   3.75000   0.50000   90.00000   0.00000   0.00100   237  238  239    304
   239   7.50000   5.00000   4.25000   0.50000   90.00000   0.00000   0.00100   238  239  240    304
   240   7.50000   5.00000   4.75000   0.50000   90.00000   0.00000   0.00100   239  240    0    304






 ***** DATA CARD NO.  1   GN  -1     0     0     0  1.00000E+01  1.00000E-02  0.00000E+00  0.00000E+00  0.00000E+00  0.00000E+00
 ***** DATA CARD NO.  2   FR   0     0     0     0  1.50000E+02  0.00000E+00  0.00000E+00  0.00000E+00  0.00000E+00  0.00000E+00
 ***** DATA CARD NO.  3   EX   0   101    10     0 -1.05430E-03 -4.14980E-03  0.00000E+00  0.00000E+00  0.00000E+00  0.00000E+00
 ***** DATA CARD NO.  4   EX   0   102    10     0 -8.39670E-04  4.41290E-03  0.00000E+00  0.00000E+00  0.00000E+00  0.00000E+00
 ***** DATA CARD NO.  5   EX   0   103    10     0  2.56650E-03 -3.75910E-03  0.00000E+00  0.00000E+00  0.00000E+00  0.00000E+00
 ***** DATA CARD NO.  6   EX   0   104    10     0 -3.64270E-03  2.45200E-03  0.00000E+00  0.00000E+00  0.00000E+00  0.00000E+00
 ***** DATA CARD NO.  7   EX   0   201    10     0 -8.41550E-04 -3.99870E-03  0.00000E+00  0.00000E+00  0.00000E+00  0.00000E+00
 ***** DATA CARD NO.  8   EX   0   202    10     0 -1.15760E-03  4.23200E-03  0.00000E+00  0.00000E+00  0.00000E+00  0.00000E+00
 ***** DATA CARD NO.  9   EX   0   203    10     0  2.66750E-03 -3.56960E-03  0.00000E+00  0.00000E+00  0.00000E+00  0.00000E+00
 ***** DATA CARD NO. 10   EX   0   204    10     0 -3.60120E-03  2.36090E-03  0.00000E+00  0.00000E+00  0.00000E+00  0.00000E+00
 ***** DATA CARD NO. 11   EX   0   301    10     0 -1.05430E-03 -4.14980E-03  0.00000E+00  0.00000E+00  0.00000E+00  0.00000E+00
 ***** DATA CARD NO. 12   EX   0   302    10     0 -8.39670E-04  4.41290E-03  0.00000E+00  0.00000E+00  0.00000E+00  0.00000E+00
 ***** DATA CARD NO. 13   EX   0   303    10     0  2.56650E-03 -3.75910E-03  0.00000E+00  0.00000E+00  0.00000E+00  0.00000E+00
 ***** DATA CARD NO. 14   EX   0   304    10     0 -3.64270E-03  2.45200E-03  0.00000E+00  0.00000E+00  0.00000E+00  0.00000E+00
 ***** DATA CARD NO. 15   RP   0    19    72  1010  0.00000E+00  0.00000E+00  5.00000E+00  5.00000E+00  0.00000E+00  0.00000E+00




                                 - - - - - - FREQUENCY - - - - - -

                                    FREQUENCY= 1.5000E+02 MHZ
                                    WAVELENGTH= 1.9987E+00 METERS




                    APPROXIMATE INTEGRATION EMPLOYED FOR SEGMENTS MORE THAN   1.000 WAVELENGTHS APART



                               - - - STRUCTURE IMPEDANCE LOADING - - -

                                   THIS STRUCTURE IS NOT LOADED



                                  - - - ANTENNA ENVIRONMENT - - -

                                            FREE SPACE



                                - - - MATRIX TIMING - - -

                        FILL=    0.016 SEC.,  FACTOR=    0.016 SEC.



                                          - - - ANTENNA INPUT PARAMETERS - - -

   TAG   SEG.    VOLTAGE (VOLTS)         CURRENT (AMPS)         IMPEDANCE (OHMS)        ADMITTANCE (MHOS)      POWER
   NO.   NO.    REAL        IMAG.       REAL        IMAG.       REAL        IMAG.       REAL        IMAG.     (WATTS)
   101    10-1.05430E-03-4.14980E-03-9.10550E-06-1.04830E-05 2.75422E+02 1.38658E+02 2.89664E-03-1.45828E-03 2.65512E-08
   102    30-8.39670E-04 4.41290E-03 3.98350E-06 1.38798E-05 2.77701E+02 1.40196E+02 2.86962E-03-1.44872E-03 2.89527E-08
   103    50 2.56650E-03-3.75910E-03 1.94144E-06-1.43436E-05 2.81144E+02 1.40877E+02 2.84305E-03-1.42461E-03 2.94508E-08
   104    70-3.64270E-03 2.45200E-03-7.25343E-06 1.19200E-05 2.85825E+02 1.31668E+02 2.88618E-03-1.32954E-03 2.78250E-08
   201    90-8.41550E-04-3.99870E-03-8.47038E-06-9.96021E-06 2.74673E+02 1.49096E+02 2.81211E-03-1.52646E-03 2.34781E-08
   202   110-1.15760E-03 4.23200E-03 3.34628E-06 1.31096E-05 2.81910E+02 1.60260E+02 2.68086E-03-1.52402E-03 2.58031E-08
   203   130 2.66750E-03-3.56960E-03 1.42298E-06-1.34546E-05 2.83109E+02 1.68318E+02 2.60974E-03-1.55158E-03 2.59116E-08
   204   150-3.60120E-03 2.36090E-03-6.60430E-06 1.13979E-05 2.92129E+02 1.46685E+02 2.73386E-03-1.37273E-03 2.53463E-08
   301   170-1.05430E-03-4.14980E-03-9.10550E-06-1.04830E-05 2.75422E+02 1.38658E+02 2.89664E-03-1.45828E-03 2.65512E-08
   302   190-8.39670E-04 4.41290E-03 3.98350E-06 1.38798E-05 2.77701E+02 1.40196E+02 2.86962E-03-1.44872E-03 2.89527E-08
   303   210 2.56650E-03-3.75910E-03 1.94144E-06-1.43436E-05 2.81144E+02 1.40877E+02 2.84305E-03-1.42461E-03 2.94508E-08
   304   230-3.64270E-03 2.45200E-03-7.25343E-06 1.19200E-05 2.85825E+02 1.31668E+02 2.88618E-03-1.32954E-03 2.78250E-08



                             - - - CURRENTS AND LOCATION - - -

                                 DISTANCES IN WAVELENGTHS


  SEG.  TAG    COORD. OF SEG. CENTER     SEG.            - - - CURRENT (AMPS) - - -
  NO.   NO.     X        Y        Z      LENGTH     REAL        IMAG.       MAG.        PHASE
     1  101  -3.7525  -2.5017  -2.3766  0.25017  -1.0871E-05 -9.3055E-06  1.4310E-05 -139.437
     2  101  -3.7525  -2.5017  -2.1264  0.25017  -8.3570E-06 -9.1960E-06  1.2426E-05 -132.263
     3  101  -3.7525  -2.5017  -1.8763  0.25017   1.1507E-05  8.8405E-06  1.4511E-05   37.535
     4  101  -3.7525  -2.5017  -1.6261  0.25017   7.9483E-06  9.4275E-06  1.2331E-05   49.866
     5  101  -3.7525  -2.5017  -1.3759  0.25017  -1.1444E-05 -8.4870E-06  1.4248E-05 -143.439
     6  101  -3.7525  -2.5017  -1.1258  0.25017  -7.1727E-06 -9.5756E-06  1.1964E-05 -126.835
     7  101  -3.7525  -2.5017  -0.8756  0.25017   1.2262E-05  8.2507E-06  1.4779E-05   33.936
     8  101  -3.7525  -2.5017  -0.6254  0.25017   7.4463E-06  9.6146E-06  1.2161E-05   52.243
     9  101  -3.7525  -2.5017  -0.3753  0.25017  -1.2279E-05 -8.5926E-06  1.4987E-05 -145.016
    10  101  -3.7525  -2.5017  -0.1251  0.25017  -9.1055E-06 -1.0483E-05  1.3885E-05 -130.977
    11  101  -3.7525  -2.5017   0.1251  0.25017   2.2260E-06  9.5700E-06  9.8255E-06   76.906
    12  101  -3.7525  -2.5017   0.3753  0.25017   6.9575E-06  1.0278E-05  1.2411E-05   55.904
    13  101  -3.7525  -2.5017   0.6254  0.25017  -2.6057E-06 -9.2094E-06  9.5710E-06 -105.798
    14  101  -3.7525  -2.5017   0.8756  0.25017  -6.8357E-06 -9.7690E-06  1.1923E-05 -124.982
    15  101  -3.7525  -2.5017   1.1258  0.25017   2.8827E-06  9.3402E-06  9.7749E-06   72.848
    16  101  -3.7525  -2.5017   1.3759  0.25017   6.6592E-06  9.6043E-06  1.1687E-05   55.264
    17  101  -3.7525  -2.5017   1.6261  0.25017  -3.2077E-06 -9.7711E-06  1.0284E-05 -108.174
    18  101  -3.7525  -2.5017   1.8763  0.25017  -6.5030E-06 -1.0257E-05  1.2145E-05 -122.375
    19  101  -3.7525  -2.5017   2.1264  0.25017   3.5157E-06  9.3568E-06  9.9954E-06   69.407
    20  101  -3.7525  -2.5017   2.3766  0.25017   5.6407E-06  1.0187E-05  1.1645E-05   61.027
    21  102  -1.2508  -2.5017  -2.3766  0.25017   6.2269E-06  1.3582E-05  1.4941E-05   65.370
    22  102  -1.2508  -2.5017  -2.1264  0.25017   3.6581E-06  1.2173E-05  1.2711E-05   73.274
    23  102  -1.2508  -2.5017  -1.8763  0.25017  -7.3254E-06 -1.3716E-05  1.5549E-05 -118.106
    24  102  -1.2508  -2.5017  -1.6261  0.25017  -3.4200E-06 -1.2430E-05  1.2892E-05 -105.384
    25  102  -1.2508  -2.5017  -1.3759  0.25017   7.2028E-06  1.3349E-05  1.5168E-05   61.649
    26  102  -1.2508  -2.5017  -1.1258  0.25017   2.4280E-06  1.2477E-05  1.2711E-05   78.988
    27  102  -1.2508  -2.5017  -0.8756  0.25017  -8.2054E-06 -1.3095E-05  1.5454E-05 -122.071
    28  102  -1.2508  -2.5017  -0.6254  0.25017  -2.6501E-06 -1.2280E-05  1.2563E-05 -102.178
    29  102  -1.2508  -2.5017  -0.3753  0.25017   8.2311E-06  1.3629E-05  1.5921E-05   58.870
    30  102  -1.2508  -2.5017  -0.1251  0.25017   3.9835E-06  1.3880E-05  1.4440E-05   73.987
    31  102  -1.2508  -2.5017   0.1251  0.25017   1.6548E-06 -1.0153E-05  1.0287E-05  -80.743
    32  102  -1.2508  -2.5017   0.3753  0.25017  -2.4615E-06 -1.2805E-05  1.3040E-05 -100.881
    33  102  -1.2508  -2.5017   0.6254  0.25017  -1.7209E-06  9.9240E-06  1.0072E-05   99.838
    34  102  -1.2508  -2.5017   0.8756  0.25017   2.0968E-06  1.2229E-05  1.2407E-05   80.271
    35  102  -1.2508  -2.5017   1.1258  0.25017   1.3216E-06 -1.0183E-05  1.0269E-05  -82.605
    36  102  -1.2508  -2.5017   1.3759  0.25017  -1.9048E-06 -1.1924E-05  1.2076E-05  -99.076
    37  102  -1.2508  -2.5017   1.6261  0.25017  -8.7661E-07  1.0919E-05  1.0954E-05   94.590
    38  102  -1.2508  -2.5017   1.8763  0.25017   1.9402E-06  1.2690E-05  1.2838E-05   81.307
    39  102  -1.2508  -2.5017   2.1264  0.25017   8.7946E-07 -1.0553E-05  1.0589E-05  -85.236
    40  102  -1.2508  -2.5017   2.3766  0.25017  -8.4216E-07 -1.2265E-05  1.2294E-05  -93.928
    41  103   1.2508  -2.5017  -2.3766  0.25017  -3.0623E-07 -1.4942E-05  1.4945E-05  -91.174
    42  103   1.2508  -2.5017  -2.1264  0.25017   1.5348E-06 -1.2596E-05  1.2690E-05  -83.053
    43  103   1.2508  -2.5017  -1.8763  0.25017   1.3290E-06  1.5526E-05  1.5583E-05   85.108
    44  103   1.2508  -2.5017  -1.6261  0.25017  -1.7624E-06  1.2740E-05  1.2861E-05   97.876
    45  103   1.2508  -2.5017  -1.3759  0.25017  -1.2349E-06 -1.5157E-05  1.5207E-05  -94.658
    46  103   1.2508  -2.5017  -1.1258  0.25017   2.8508E-06 -1.2423E-05  1.2746E-05  -77.075
    47  103   1.2508  -2.5017  -0.8756  0.25017   2.4383E-06  1.5268E-05  1.5462E-05   80.927
    48  103   1.2508  -2.5017  -0.6254  0.25017  -2.3732E-06  1.2252E-05  1.2479E-05  100.963
    49  103   1.2508  -2.5017  -0.3753  0.25017  -2.0537E-06 -1.5860E-05  1.5993E-05  -97.378
    50  103   1.2508  -2.5017  -0.1251  0.25017   1.9414E-06 -1.4344E-05  1.4474E-05  -82.292
    51  103   1.2508  -2.5017   0.1251  0.25017  -5.6215E-06  8.6127E-06  1.0285E-05  123.133
    52  103   1.2508  -2.5017   0.3753  0.25017  -2.8837E-06  1.2770E-05  1.3091E-05  102.725
    53  103   1.2508  -2.5017   0.6254  0.25017   5.5767E-06 -8.3020E-06  1.0001E-05  -56.109
    54  103   1.2508  -2.5017   0.8756  0.25017   2.9544E-06 -1.2032E-05  1.2390E-05  -76.205
    55  103   1.2508  -2.5017   1.1258  0.25017  -5.3386E-06  8.7011E-06  1.0208E-05  121.531
    56  103   1.2508  -2.5017   1.3759  0.25017  -3.0257E-06  1.1600E-05  1.1988E-05  104.619
    57  103   1.2508  -2.5017   1.6261  0.25017   5.1971E-06 -9.6898E-06  1.0996E-05  -61.793
    58  103   1.2508  -2.5017   1.8763  0.25017   3.2485E-06 -1.2480E-05  1.2896E-05  -75.410
    59  103   1.2508  -2.5017   2.1264  0.25017  -5.1266E-06  9.1894E-06  1.0523E-05  119.157
    60  103   1.2508  -2.5017   2.3766  0.25017  -4.1709E-06  1.1514E-05  1.2246E-05  109.912
    61  104   3.7525  -2.5017  -2.3766  0.25017  -5.5260E-06  1.3177E-05  1.4289E-05  112.752
    62  104   3.7525  -2.5017  -2.1264  0.25017  -6.5052E-06  1.0549E-05  1.2394E-05  121.660
    63  104   3.7525  -2.5017  -1.8763  0.25017   4.5456E-06 -1.3954E-05  1.4676E-05  -71.957
    64  104   3.7525  -2.5017  -1.6261  0.25017   6.6345E-06 -1.0446E-05  1.2375E-05  -57.580
    65  104   3.7525  -2.5017  -1.3759  0.25017  -4.3330E-06  1.3851E-05  1.4513E-05  107.371
    66  104   3.7525  -2.5017  -1.1258  0.25017  -7.0610E-06  1.0155E-05  1.2369E-05  124.811
    67  104   3.7525  -2.5017  -0.8756  0.25017   3.8313E-06 -1.3945E-05  1.4462E-05  -74.637
    68  104   3.7525  -2.5017  -0.6254  0.25017   7.0305E-06 -9.8249E-06  1.2081E-05  -54.413
    69  104   3.7525  -2.5017  -0.3753  0.25017  -4.0907E-06  1.4504E-05  1.5070E-05  105.750
    70  104   3.7525  -2.5017  -0.1251  0.25017  -7.2534E-06  1.1920E-05  1.3953E-05  121.321
    71  104   3.7525  -2.5017   0.1251  0.25017   8.3935E-06 -5.1057E-06  9.8244E-06  -31.312
    72  104   3.7525  -2.5017   0.3753  0.25017   7.4732E-06 -9.8326E-06  1.2350E-05  -52.764
    73  104   3.7525  -2.5017   0.6254  0.25017  -8.3308E-06  5.2206E-06  9.8315E-06  147.926
    74  104   3.7525  -2.5017   0.8756  0.25017  -7.3593E-06  9.3459E-06  1.1896E-05  128.218
    75  104   3.7525  -2.5017   1.1258  0.25017   8.1937E-06 -5.7197E-06  9.9925E-06  -34.917
    76  104   3.7525  -2.5017   1.3759  0.25017   7.2706E-06 -9.1707E-06  1.1703E-05  -51.592
    77  104   3.7525  -2.5017   1.6261  0.25017  -8.2816E-06  6.3288E-06  1.0423E-05  142.613
    78  104   3.7525  -2.5017   1.8763  0.25017  -7.5070E-06  9.5179E-06  1.2122E-05  128.264
    79  104   3.7525  -2.5017   2.1264  0.25017   8.3572E-06 -6.2308E-06  1.0424E-05  -36.707
    80  104   3.7525  -2.5017   2.3766  0.25017   8.2326E-06 -8.5401E-06  1.1862E-05  -46.050
    81  201  -3.7525   0.0000  -2.3766  0.25017  -1.0271E-05 -8.7599E-06  1.3499E-05 -139.540
    82  201  -3.7525   0.0000  -2.1264  0.25017  -8.0868E-06 -8.7278E-06  1.1898E-05 -132.817
    83  201  -3.7525   0.0000  -1.8763  0.25017   1.0517E-05  8.0659E-06  1.3254E-05   37.487
    84  201  -3.7525   0.0000  -1.6261  0.25017   7.4484E-06  8.5542E-06  1.1343E-05   48.953
    85  201  -3.7525   0.0000  -1.3759  0.25017  -1.0496E-05 -7.9729E-06  1.3181E-05 -142.779
    86  201  -3.7525   0.0000  -1.1258  0.25017  -6.6981E-06 -8.5572E-06  1.0867E-05 -128.052
    87  201  -3.7525   0.0000  -0.8756  0.25017   1.1115E-05  8.1513E-06  1.3783E-05   36.256
    88  201  -3.7525   0.0000  -0.6254  0.25017   6.5992E-06  8.9196E-06  1.1095E-05   53.504
    89  201  -3.7525   0.0000  -0.3753  0.25017  -1.1521E-05 -8.4344E-06  1.4279E-05 -143.794
    90  201  -3.7525   0.0000  -0.1251  0.25017  -8.4704E-06 -9.9602E-06  1.3075E-05 -130.379
    91  201  -3.7525   0.0000   0.1251  0.25017   1.6977E-06  8.8659E-06  9.0270E-06   79.160
    92  201  -3.7525   0.0000   0.3753  0.25017   6.3639E-06  9.7267E-06  1.1624E-05   56.804
    93  201  -3.7525   0.0000   0.6254  0.25017  -2.0153E-06 -8.4702E-06  8.7066E-06 -103.383
    94  201  -3.7525   0.0000   0.8756  0.25017  -6.1596E-06 -9.3455E-06  1.1193E-05 -123.389
    95  201  -3.7525   0.0000   1.1258  0.25017   2.2921E-06  8.3399E-06  8.6492E-06   74.633
    96  201  -3.7525   0.0000   1.3759  0.25017   5.8569E-06  9.0370E-06  1.0769E-05   57.053
    97  201  -3.7525   0.0000   1.6261  0.25017  -2.7606E-06 -8.5388E-06  8.9740E-06 -107.916
    98  201  -3.7525   0.0000   1.8763  0.25017  -5.6728E-06 -9.1489E-06  1.0765E-05 -121.801
    99  201  -3.7525   0.0000   2.1264  0.25017   3.3274E-06  8.6066E-06  9.2274E-06   68.863
   100  201  -3.7525   0.0000   2.3766  0.25017   5.1755E-06  9.2960E-06  1.0640E-05   60.894
   101  202  -1.2508   0.0000  -2.3766  0.25017   5.7519E-06  1.2806E-05  1.4038E-05   65.812
   102  202  -1.2508   0.0000  -2.1264  0.25017   3.4992E-06  1.1457E-05  1.1979E-05   73.016
   103  202  -1.2508   0.0000  -1.8763  0.25017  -6.4460E-06 -1.2671E-05  1.4217E-05 -116.962
   104  202  -1.2508   0.0000  -1.6261  0.25017  -3.0840E-06 -1.1178E-05  1.1596E-05 -105.424
   105  202  -1.2508   0.0000  -1.3759  0.25017   6.2725E-06  1.2721E-05  1.4183E-05   63.753
   106  202  -1.2508   0.0000  -1.1258  0.25017   2.1031E-06  1.1221E-05  1.1416E-05   79.384
   107  202  -1.2508   0.0000  -0.8756  0.25017  -6.9568E-06 -1.2733E-05  1.4509E-05 -118.651
   108  202  -1.2508   0.0000  -0.6254  0.25017  -1.7659E-06 -1.1162E-05  1.1301E-05  -98.990
   109  202  -1.2508   0.0000  -0.3753  0.25017   7.5205E-06  1.3395E-05  1.5362E-05   60.689
   110  202  -1.2508   0.0000  -0.1251  0.25017   3.3463E-06  1.3110E-05  1.3530E-05   75.681
   111  202  -1.2508   0.0000   0.1251  0.25017   2.0078E-06 -9.0685E-06  9.2882E-06  -77.516
   112  202  -1.2508   0.0000   0.3753  0.25017  -2.0122E-06 -1.1969E-05  1.2137E-05  -99.543
   113  202  -1.2508   0.0000   0.6254  0.25017  -2.3141E-06  8.7814E-06  9.0812E-06  104.763
   114  202  -1.2508   0.0000   0.8756  0.25017   1.3862E-06  1.1520E-05  1.1603E-05   83.139
   115  202  -1.2508   0.0000   1.1258  0.25017   1.8079E-06 -8.7386E-06  8.9236E-06  -78.311
   116  202  -1.2508   0.0000   1.3759  0.25017  -1.0186E-06 -1.1024E-05  1.1071E-05  -95.279
   117  202  -1.2508   0.0000   1.6261  0.25017  -9.9882E-07  9.2161E-06  9.2701E-06   96.185
   118  202  -1.2508   0.0000   1.8763  0.25017   1.3001E-06  1.1116E-05  1.1192E-05   83.329
   119  202  -1.2508   0.0000   2.1264  0.25017   9.0723E-07 -9.4952E-06  9.5384E-06  -84.542
   120  202  -1.2508   0.0000   2.3766  0.25017  -5.4366E-07 -1.1008E-05  1.1022E-05  -92.827
   121  203   1.2508   0.0000  -2.3766  0.25017  -1.0613E-06 -1.4053E-05  1.4093E-05  -94.319
   122  203   1.2508   0.0000  -2.1264  0.25017   5.2259E-07 -1.1928E-05  1.1939E-05  -87.491
   123  203   1.2508   0.0000  -1.8763  0.25017   1.6309E-06  1.4265E-05  1.4358E-05   83.478
   124  203   1.2508   0.0000  -1.6261  0.25017  -9.1961E-07  1.1609E-05  1.1645E-05   94.529
   125  203   1.2508   0.0000  -1.3759  0.25017  -1.4525E-06 -1.4148E-05  1.4222E-05  -95.862
   126  203   1.2508   0.0000  -1.1258  0.25017   1.9823E-06 -1.1139E-05  1.1314E-05  -79.910
   127  203   1.2508   0.0000  -0.8756  0.25017   2.3174E-06  1.4661E-05  1.4843E-05   81.018
   128  203   1.2508   0.0000  -0.6254  0.25017  -2.0032E-06  1.1304E-05  1.1481E-05  100.049
   129  203   1.2508   0.0000  -0.3753  0.25017  -2.3405E-06 -1.5134E-05  1.5314E-05  -98.791
   130  203   1.2508   0.0000  -0.1251  0.25017   1.4230E-06 -1.3455E-05  1.3530E-05  -83.963
   131  203   1.2508   0.0000   0.1251  0.25017  -4.9787E-06  7.6412E-06  9.1200E-06  123.086
   132  203   1.2508   0.0000   0.3753  0.25017  -2.3033E-06  1.1880E-05  1.2101E-05  100.973
   133  203   1.2508   0.0000   0.6254  0.25017   5.0178E-06 -7.3572E-06  8.9054E-06  -55.705
   134  203   1.2508   0.0000   0.8756  0.25017   2.5470E-06 -1.1356E-05  1.1638E-05  -77.358
   135  203   1.2508   0.0000   1.1258  0.25017  -4.6502E-06  7.4168E-06  8.7540E-06  122.087
   136  203   1.2508   0.0000   1.3759  0.25017  -2.7053E-06  1.0740E-05  1.1076E-05  104.138
   137  203   1.2508   0.0000   1.6261  0.25017   4.2284E-06 -8.1511E-06  9.1826E-06  -62.582
   138  203   1.2508   0.0000   1.8763  0.25017   2.7772E-06 -1.0979E-05  1.1325E-05  -75.805
   139  203   1.2508   0.0000   2.1264  0.25017  -3.8776E-06  8.2920E-06  9.1538E-06  115.062
   140  203   1.2508   0.0000   2.3766  0.25017  -3.1518E-06  1.0383E-05  1.0851E-05  106.886
   141  204   3.7525   0.0000  -2.3766  0.25017  -4.7319E-06  1.2609E-05  1.3468E-05  110.570
   142  204   3.7525   0.0000  -2.1264  0.25017  -5.6854E-06  1.0288E-05  1.1754E-05  118.927
   143  204   3.7525   0.0000  -1.8763  0.25017   3.8753E-06 -1.2948E-05  1.3515E-05  -73.337
   144  204   3.7525   0.0000  -1.6261  0.25017   5.7814E-06 -9.7387E-06  1.1325E-05  -59.305
   145  204   3.7525   0.0000  -1.3759  0.25017  -3.7467E-06  1.3140E-05  1.3663E-05  105.915
   146  204   3.7525   0.0000  -1.1258  0.25017  -6.0575E-06  9.5266E-06  1.1289E-05  122.450
   147  204   3.7525   0.0000  -0.8756  0.25017   3.7007E-06 -1.3277E-05  1.3784E-05  -74.426
   148  204   3.7525   0.0000  -0.6254  0.25017   6.5818E-06 -9.2309E-06  1.1337E-05  -54.511
   149  204   3.7525   0.0000  -0.3753  0.25017  -3.5324E-06  1.3869E-05  1.4312E-05  104.289
   150  204   3.7525   0.0000  -0.1251  0.25017  -6.6043E-06  1.1398E-05  1.3173E-05  120.089
   151  204   3.7525   0.0000   0.1251  0.25017   7.7146E-06 -4.4508E-06  8.9064E-06  -29.982
   152  204   3.7525   0.0000   0.3753  0.25017   6.7815E-06 -9.1823E-06  1.1415E-05  -53.553
   153  204   3.7525   0.0000   0.6254  0.25017  -7.7678E-06  4.7536E-06  9.1069E-06  148.535
   154  204   3.7525   0.0000   0.8756  0.25017  -6.8706E-06  8.9342E-06  1.1271E-05  127.561
   155  204   3.7525   0.0000   1.1258  0.25017   7.4739E-06 -5.0259E-06  9.0066E-06  -33.920
   156  204   3.7525   0.0000   1.3759  0.25017   6.8597E-06 -8.7052E-06  1.1083E-05  -51.762
   157  204   3.7525   0.0000   1.6261  0.25017  -7.2185E-06  5.3562E-06  8.9886E-06  143.424
   158  204   3.7525   0.0000   1.8763  0.25017  -6.7477E-06  8.4617E-06  1.0823E-05  128.570
   159  204   3.7525   0.0000   2.1264  0.25017   7.3314E-06 -5.9115E-06  9.4178E-06  -38.880
   160  204   3.7525   0.0000   2.3766  0.25017   7.2531E-06 -7.9582E-06  1.0768E-05  -47.654
   161  301  -3.7525   2.5017  -2.3766  0.25017  -1.0871E-05 -9.3055E-06  1.4310E-05 -139.437
   162  301  -3.7525   2.5017  -2.1264  0.25017  -8.3570E-06 -9.1960E-06  1.2426E-05 -132.263
   163  301  -3.7525   2.5017  -1.8763  0.25017   1.1507E-05  8.8405E-06  1.4511E-05   37.535
   164  301  -3.7525   2.5017  -1.6261  0.25017   7.9483E-06  9.4275E-06  1.2331E-05   49.866
   165  301  -3.7525   2.5017  -1.3759  0.25017  -1.1444E-05 -8.4870E-06  1.4248E-05 -143.439
   166  301  -3.7525   2.5017  -1.1258  0.25017  -7.1727E-06 -9.5756E-06  1.1964E-05 -126.835
   167  301  -3.7525   2.5017  -0.8756  0.25017   1.2262E-05  8.2507E-06  1.4779E-05   33.936
   168  301  -3.7525   2.5017  -0.6254  0.25017   7.4463E-06  9.6146E-06  1.2161E-05   52.243
   169  301  -3.7525   2.5017  -0.3753  0.25017  -1.2279E-05 -8.5926E-06  1.4987E-05 -145.016
   170  301  -3.7525   2.5017  -0.1251  0.25017  -9.1055E-06 -1.0483E-05  1.3885E-05 -130.977
   171  301  -3.7525   2.5017   0.1251  0.25017   2.2260E-06  9.5700E-06  9.8255E-06   76.906
   172  301  -3.7525   2.5017   0.3753  0.25017   6.9575E-06  1.0278E-05  1.2411E-05   55.904
   173  301  -3.7525   2.5017   0.6254  0.25017  -2.6057E-06 -9.2094E-06  9.5710E-06 -105.798
   174  301  -3.7525   2.5017   0.8756  0.25017  -6.8357E-06 -9.7690E-06  1.1923E-05 -124.982
   175  301  -3.7525   2.5017   1.1258  0.25017   2.8827E-06  9.3402E-06  9.7749E-06   72.848
   176  301  -3.7525   2.5017   1.3759  0.25017   6.6592E-06  9.6043E-06  1.1687E-05   55.264
   177  301  -3.7525   2.5017   1.6261  0.25017  -3.2077E-06 -9.7711E-06  1.0284E-05 -108.174
   178  301  -3.7525   2.5017   1.8763  0.25017  -6.5030E-06 -1.0257E-05  1.2145E-05 -122.375
   179  301  -3.7525   2.5017   2.1264  0.25017   3.5157E-06  9.3568E-06  9.9954E-06   69.407
   180  301  -3.7525   2.5017   2.3766  0.25017   5.6407E-06  1.0187E-05  1.1645E-05   61.027
   181  302  -1.2508   2.5017  -2.3766  0.25017   6.2269E-06  1.3582E-05  1.4941E-05   65.370
   182  302  -1.2508   2.5017  -2.1264  0.25017   3.6581E-06  1.2173E-05  1.2711E-05   73.274
   183  302  -1.2508   2.5017  -1.8763  0.25017  -7.3254E-06 -1.3716E-05  1.5549E-05 -118.106
   184  302  -1.2508   2.5017  -1.6261  0.25017  -3.4200E-06 -1.2430E-05  1.2892E-05 -105.384
   185  302  -1.2508   2.5017  -1.3759  0.25017   7.2028E-06  1.3349E-05  1.5168E-05   61.649
   186  302  -1.2508   2.5017  -1.1258  0.25017   2.4280E-06  1.2477E-05  1.2711E-05   78.988
   187  302  -1.2508   2.5017  -0.8756  0.25017  -8.2054E-06 -1.3095E-05  1.5454E-05 -122.071
   188  302  -1.2508   2.5017  -0.6254  0.25017  -2.6501E-06 -1.2280E-05  1.2563E-05 -102.178
   189  302  -1.2508   2.5017  -0.3753  0.25017   8.2311E-06  1.3629E-05  1.5921E-05   58.870
   190  302  -1.2508   2.5017  -0.1251  0.25017   3.9835E-06  1.3880E-05  1.4440E-05   73.987
   191  302  -1.2508   2.5017   0.1251  0.25017   1.6548E-06 -1.0153E-05  1.0287E-05  -80.743
   192  302  -1.2508   2.5017   0.3753  0.25017  -2.4615E-06 -1.2805E-05  1.3040E-05 -100.881
   193  302  -1.2508   2.5017   0.6254  0.25017  -1.7209E-06  9.9240E-06  1.0072E-05   99.838
   194  302  -1.2508   2.5017   0.8756  0.25017   2.0968E-06  1.2229E-05  1.2407E-05   80.271
   195  302  -1.2508   2.5017   1.1258  0.25017   1.3216E-06 -1.0183E-05  1.0269E-05  -82.605
   196  302  -1.2508   2.5017   1.3759  0.25017  -1.9048E-06 -1.1924E-05  1.2076E-05  -99.076
   197  302  -1.2508   2.5017   1.6261  0.25017  -8.7661E-07  1.0919E-05  1.0954E-05   94.590
   198  302  -1.2508   2.5017   1.8763  0.25017   1.9402E-06  1.2690E-05  1.2838E-05   81.307
   199  302  -1.2508   2.5017   2.1264  0.25017   8.7946E-07 -1.0553E-05  1.0589E-05  -85.236
   200  302  -1.2508   2.5017   2.3766  0.25017  -8.4216E-07 -1.2265E-05  1.2294E-05  -93.928
   201  303   1.2508   2.5017  -2.3766  0.25017  -3.0623E-07 -1.4942E-05  1.4945E-05  -91.174
   202  303   1.2508   2.5017  -2.1264  0.25017   1.5348E-06 -1.2596E-05  1.2690E-05  -83.053
   203  303   1.2508   2.5017  -1.8763  0.25017   1.3290E-06  1.5526E-05  1.5583E-05   85.108
   204  303   1.2508   2.5017  -1.6261  0.25017  -1.7624E-06  1.2740E-05  1.2861E-05   97.876
   205  303   1.2508   2.5017  -1.3759  0.25017  -1.2349E-06 -1.5157E-05  1.5207E-05  -94.658
   206  303   1.2508   2.5017  -1.1258  0.25017   2.8508E-06 -1.2423E-05  1.2746E-05  -77.075
   207  303   1.2508   2.5017  -0.8756  0.25017   2.4383E-06  1.5268E-05  1.5462E-05   80.927
   208  303   1.2508   2.5017  -0.6254  0.25017  -2.3732E-06  1.2252E-05  1.2479E-05  100.963
   209  303   1.2508   2.5017  -0.3753  0.25017  -2.0537E-06 -1.5860E-05  1.5993E-05  -97.378
   210  303   1.2508   2.5017  -0.1251  0.25017   1.9414E-06 -1.4344E-05  1.4474E-05  -82.292
   211  303   1.2508   2.5017   0.1251  0.25017  -5.6215E-06  8.6127E-06  1.0285E-05  123.133
   212  303   1.2508   2.5017   0.3753  0.25017  -2.8837E-06  1.2770E-05  1.3091E-05  102.725
   213  303   1.2508   2.5017   0.6254  0.25017   5.5767E-06 -8.3020E-06  1.0001E-05  -56.109
   214  303   1.2508   2.5017   0.8756  0.25017   2.9544E-06 -1.2032E-05  1.2390E-05  -76.205
   215  303   1.2508   2.5017   1.1258  0.25017  -5.3386E-06  8.7011E-06  1.0208E-05  121.531
   216  303   1.2508   2.5017   1.3759  0.25017  -3.0257E-06  1.1600E-05  1.1988E-05  104.619
   217  303   1.2508   2.5017   1.6261  0.25017   5.1971E-06 -9.6898E-06  1.0996E-05  -61.793
   218  303   1.2508   2.5017   1.8763  0.25017   3.2485E-06 -1.2480E-05  1.2896E-05  -75.410
   219  303   1.2508   2.5017   2.1264  0.25017  -5.1266E-06  9.1894E-06  1.0523E-05  119.157
   220  303   1.2508   2.5017   2.3766  0.25017  -4.1709E-06  1.1514E-05  1.2246E-05  109.912
   221  304   3.7525   2.5017  -2.3766  0.25017  -5.5260E-06  1.3177E-05  1.4289E-05  112.752
   222  304   3.7525   2.5017  -2.1264  0.25017  -6.5052E-06  1.0549E-05  1.2394E-05  121.660
   223  304   3.7525   2.5017  -1.8763  0.25017   4.5456E-06 -1.3954E-05  1.4676E-05  -71.957
   224  304   3.7525   2.5017  -1.6261  0.25017   6.6345E-06 -1.0446E-05  1.2375E-05  -57.580
   225  304   3.7525   2.5017  -1.3759  0.25017  -4.3330E-06  1.3851E-05  1.4513E-05  107.371
   226  304   3.7525   2.5017  -1.1258  0.25017  -7.0610E-06  1.0155E-05  1.2369E-05  124.811
   227  304   3.7525   2.5017  -0.8756  0.25017   3.8313E-06 -1.3945E-05  1.4462E-05  -74.637
   228  304   3.7525   2.5017  -0.6254  0.25017   7.0305E-06 -9.8249E-06  1.2081E-05  -54.413
   229  304   3.7525   2.5017  -0.3753  0.25017  -4.0907E-06  1.4504E-05  1.5070E-05  105.750
   230  304   3.7525   2.5017  -0.1251  0.25017  -7.2534E-06  1.1920E-05  1.3953E-05  121.321
   231  304   3.7525   2.5017   0.1251  0.25017   8.3935E-06 -5.1057E-06  9.8244E-06  -31.312
   232  304   3.7525   2.5017   0.3753  0.25017   7.4732E-06 -9.8326E-06  1.2350E-05  -52.764
   233  304   3.7525   2.5017   0.6254  0.25017  -8.3308E-06  5.2206E-06  9.8315E-06  147.926
   234  304   3.7525   2.5017   0.8756  0.25017  -7.3593E-06  9.3459E-06  1.1896E-05  128.218
   235  304   3.7525   2.5017   1.1258  0.25017   8.1937E-06 -5.7197E-06  9.9925E-06  -34.917
   236  304   3.7525   2.5017   1.3759  0.25017   7.2706E-06 -9.1707E-06  1.1703E-05  -51.592
   237  304   3.7525   2.5017   1.6261  0.25017  -8.2816E-06  6.3288E-06  1.0423E-05  142.613
   238  304   3.7525   2.5017   1.8763  0.25017  -7.5070E-06  9.5179E-06  1.2122E-05  128.264
   239  304   3.7525   2.5017   2.1264  0.25017   8.3572E-06 -6.2308E-06  1.0424E-05  -36.707
   240  304   3.7525   2.5017   2.3766  0.25017   8.2326E-06 -8.5401E-06  1.1862E-05  -46.050



                                        - - - POWER BUDGET - - -

                                           INPUT POWER   = 3.2610E-07 WATTS
                                           RADIATED POWER= 3.2610E-07 WATTS
                                           STRUCTURE LOSS= 0.0000E+00 WATTS
                                           NETWORK LOSS  = 0.0000E+00 WATTS
                                           EFFICIENCY    = 100.00 PERCENT



                                                - - - RADIATION PATTERNS - - -

  - - ANGLES - -       - DIRECTIVE GAINS -       - - - POLARIZATION - - -    - - - E(THETA) - - -    - - - E(PHI) - - -
  THETA     PHI        VERT.   HOR.    TOTAL      AXIAL     TILT   SENSE     MAGNITUDE    PHASE      MAGNITUDE    PHASE 
 DEGREES  DEGREES       DB      DB      DB        RATIO     DEG.              VOLTS/M    DEGREES      VOLTS/M    DEGREES
    0.00     0.00    -999.99 -999.99 -999.99    0.00000     0.00            0.00000E+00     0.00    0.00000E+00     0.00
    5.00     0.00      -9.77 -999.99   -9.77    0.00000     0.00  LINEAR    1.43660E-03     0.10    0.00000E+00     0.00
   10.00     0.00      11.54 -999.99   11.54    0.00000     0.00  LINEAR    1.66967E-02     0.00    0.00000E+00     0.00
   15.00     0.00       0.84 -999.99    0.84    0.00000     0.00  LINEAR    4.86832E-03     0.16    0.00000E+00     0.00
   20.00     0.00       3.26 -999.99    3.26    0.00000     0.00  LINEAR    6.43604E-03   179.79    0.00000E+00     0.00
   25.00     0.00       6.26 -999.99    6.26    0.00000     0.00  LINEAR    9.08713E-03     0.00    0.00000E+00     0.00
   30.00     0.00       7.54 -999.99    7.54    0.00000     0.00  LINEAR    1.05331E-02  -179.43    0.00000E+00     0.00
   35.00     0.00      11.87 -999.99   11.87    0.00000     0.00  LINEAR    1.73407E-02  -178.78    0.00000E+00     0.00
   40.00     0.00     -22.14 -999.99  -22.14    0.00000     0.00  LINEAR    3.45531E-04  -153.95    0.00000E+00     0.00
   45.00     0.00      -5.19 -999.99   -5.19    0.00000     0.00  LINEAR    2.43324E-03  -179.57    0.00000E+00     0.00
   50.00     0.00     -21.97 -999.99  -21.97    0.00000     0.00  LINEAR    3.52589E-04  -172.85    0.00000E+00     0.00
   55.00     0.00      -6.33 -999.99   -6.33    0.00000     0.00  LINEAR    2.13448E-03  -174.52    0.00000E+00     0.00
   60.00     0.00     -11.97 -999.99  -11.97    0.00000     0.00  LINEAR    1.11478E-03  -164.17    0.00000E+00     0.00
   65.00     0.00       1.95 -999.99    1.95    0.00000     0.00  LINEAR    5.53180E-03     7.52    0.00000E+00     0.00
   70.00     0.00      -2.45 -999.99   -2.45    0.00000     0.00  LINEAR    3.33619E-03   156.25    0.00000E+00     0.00
   75.00     0.00       4.51 -999.99    4.51    0.00000     0.00  LINEAR    7.42825E-03   172.78    0.00000E+00     0.00
   80.00     0.00       2.23 -999.99    2.23    0.00000     0.00  LINEAR    5.71887E-03    15.84    0.00000E+00     0.00
   85.00     0.00       9.90 -999.99    9.90    0.00000     0.00  LINEAR    1.38283E-02    13.50    0.00000E+00     0.00
   90.00     0.00       2.24 -999.99    2.24    0.00000     0.00  LINEAR    5.72201E-03    40.71    0.00000E+00     0.00
    0.00     5.00    -999.99 -999.99 -999.99    0.00000     0.00            0.00000E+00     0.00    0.00000E+00     0.00
    5.00     5.00     -10.02 -999.99  -10.02    0.00000     0.00  LINEAR    1.39448E-03     0.10    0.00000E+00     0.00
   10.00     5.00      11.37 -999.99   11.37    0.00000     0.00  LINEAR    1.63740E-02     0.00    0.00000E+00     0.00
   15.00     5.00       1.02 -999.99    1.02    0.00000     0.00  LINEAR    4.97241E-03     0.16    0.00000E+00     0.00
   20.00     5.00       2.84 -999.99    2.84    0.00000     0.00  LINEAR    6.13241E-03   179.80    0.00000E+00     0.00
   25.00     5.00       5.19 -999.99    5.19    0.00000     0.00  LINEAR    8.03791E-03     0.02    0.00000E+00     0.00
   30.00     5.00       5.40 -999.99    5.40    0.00000     0.00  LINEAR    8.23630E-03  -179.31    0.00000E+00     0.00
   35.00     5.00       9.96 -999.99    9.96    0.00000     0.00  LINEAR    1.39231E-02  -178.46    0.00000E+00     0.00
   40.00     5.00     -21.91 -999.99  -21.91    0.00000     0.00  LINEAR    3.54951E-04  -150.59    0.00000E+00     0.00
   45.00     5.00      -8.74 -999.99   -8.74    0.00000     0.00  LINEAR    1.61659E-03  -179.87    0.00000E+00     0.00
   50.00     5.00     -23.17 -999.99  -23.17    0.00000     0.00  LINEAR    3.07112E-04  -173.43    0.00000E+00     0.00
   55.00     5.00     -10.67 -999.99  -10.67    0.00000     0.00  LINEAR    1.29503E-03  -175.14    0.00000E+00     0.00
   60.00     5.00     -13.04 -999.99  -13.04    0.00000     0.00  LINEAR    9.85827E-04  -169.30    0.00000E+00     0.00
   65.00     5.00      -4.51 -999.99   -4.51    0.00000     0.00  LINEAR    2.63119E-03     8.01    0.00000E+00     0.00
   70.00     5.00      -8.21 -999.99   -8.21    0.00000     0.00  LINEAR    1.71770E-03   153.90    0.00000E+00     0.00
   75.00     5.00      -1.87 -999.99   -1.87    0.00000     0.00  LINEAR    3.56544E-03   171.80    0.00000E+00     0.00
   80.00     5.00      -3.92 -999.99   -3.92    0.00000     0.00  LINEAR    2.81627E-03    13.72    0.00000E+00     0.00
   85.00     5.00       3.55 -999.99    3.55    0.00000     0.00  LINEAR    6.65407E-03    12.49    0.00000E+00     0.00
   90.00     5.00      -3.96 -999.99   -3.96    0.00000     0.00  LINEAR    2.80196E-03    40.23    0.00000E+00     0.00
    0.00    10.00    -999.99 -999.99 -999.99    0.00000     0.00            0.00000E+00     0.00    0.00000E+00     0.00
    5.00    10.00     -10.83 -999.99  -10.83    0.00000     0.00  LINEAR    1.27126E-03     0.10    0.00000E+00     0.00
   10.00    10.00      10.85 -999.99   10.85    0.00000     0.00  LINEAR    1.54211E-02     0.00    0.00000E+00     0.00
   15.00    10.00       1.35 -999.99    1.35    0.00000     0.00  LINEAR    5.16816E-03     0.15    0.00000E+00     0.00
   20.00    10.00       1.30 -999.99    1.30    0.00000     0.00  LINEAR    5.13847E-03   179.83    0.00000E+00     0.00
   25.00    10.00       1.46 -999.99    1.46    0.00000     0.00  LINEAR    5.23381E-03     0.08    0.00000E+00     0.00
   30.00    10.00      -2.43 -999.99   -2.43    0.00000     0.00  LINEAR    3.34388E-03  -178.63    0.00000E+00     0.00
   35.00    10.00       2.23 -999.99    2.23    0.00000     0.00  LINEAR    5.71411E-03  -176.19    0.00000E+00     0.00
   40.00    10.00     -21.00 -999.99  -21.00    0.00000     0.00  LINEAR    3.93916E-04  -142.84    0.00000E+00     0.00
   45.00    10.00     -33.48 -999.99  -33.48    0.00000     0.00  LINEAR    9.36308E-05   170.78    0.00000E+00     0.00
   50.00    10.00     -33.26 -999.99  -33.26    0.00000     0.00  LINEAR    9.61243E-05   -11.95    0.00000E+00     0.00
   55.00    10.00     -29.24 -999.99  -29.24    0.00000     0.00  LINEAR    1.52528E-04    14.54    0.00000E+00     0.00
   60.00    10.00     -18.63 -999.99  -18.63    0.00000     0.00  LINEAR    5.17537E-04    13.66    0.00000E+00     0.00
   65.00    10.00     -15.79 -999.99  -15.79    0.00000     0.00  LINEAR    7.18250E-04  -179.93    0.00000E+00     0.00
   70.00    10.00     -17.35 -999.99  -17.35    0.00000     0.00  LINEAR    6.00063E-04    -4.68    0.00000E+00     0.00
   75.00    10.00      -6.94 -999.99   -6.94    0.00000     0.00  LINEAR    1.98994E-03    -3.04    0.00000E+00     0.00
   80.00    10.00      -9.22 -999.99   -9.22    0.00000     0.00  LINEAR    1.53023E-03  -156.16    0.00000E+00     0.00
   85.00    10.00      -0.40 -999.99   -0.40    0.00000     0.00  LINEAR    4.22090E-03  -163.47    0.00000E+00     0.00
   90.00    10.00      -8.64 -999.99   -8.64    0.00000     0.00  LINEAR    1.63472E-03  -138.96    0.00000E+00     0.00
    0.00    15.00    -999.99 -999.99 -999.99    0.00000     0.00            0.00000E+00     0.00    0.00000E+00     0.00
    5.00    15.00     -12.28 -999.99  -12.28    0.00000     0.00  LINEAR    1.07605E-03     0.11    0.00000E+00     0.00
   10.00    15.00       9.94 -999.99    9.94    0.00000     0.00  LINEAR    1.38877E-02     0.00    0.00000E+00     0.00
   15.00    15.00       1.31 -999.99    1.31    0.00000     0.00  LINEAR    5.14088E-03     0.17    0.00000E+00     0.00
   20.00    15.00      -2.39 -999.99   -2.39    0.00000     0.00  LINEAR    3.35918E-03   179.90    0.00000E+00     0.00
   25.00    15.00      -7.87 -999.99   -7.87    0.00000     0.00  LINEAR    1.78679E-03     0.31    0.00000E+00     0.00
   30.00    15.00     -34.13 -999.99  -34.13    0.00000     0.00  LINEAR    8.69251E-05   -32.00    0.00000E+00     0.00
   35.00    15.00      -5.93 -999.99   -5.93    0.00000     0.00  LINEAR    2.23367E-03    -9.39    0.00000E+00     0.00
   40.00    15.00     -19.46 -999.99  -19.46    0.00000     0.00  LINEAR    4.70464E-04  -137.15    0.00000E+00     0.00
   45.00    15.00     -23.37 -999.99  -23.37    0.00000     0.00  LINEAR    2.99994E-04    -0.54    0.00000E+00     0.00
   50.00    15.00     -16.74 -999.99  -16.74    0.00000     0.00  LINEAR    6.43907E-04    -1.03    0.00000E+00     0.00
   55.00    15.00     -21.69 -999.99  -21.69    0.00000     0.00  LINEAR    3.63911E-04     5.62    0.00000E+00     0.00
   60.00    15.00      -9.62 -999.99   -9.62    0.00000     0.00  LINEAR    1.46000E-03     8.60    0.00000E+00     0.00
   65.00    15.00     -31.00 -999.99  -31.00    0.00000     0.00  LINEAR    1.24667E-04   140.14    0.00000E+00     0.00
   70.00    15.00     -20.61 -999.99  -20.61    0.00000     0.00  LINEAR    4.12252E-04     1.03    0.00000E+00     0.00
   75.00    15.00     -12.78 -999.99  -12.78    0.00000     0.00  LINEAR    1.01513E-03    -0.95    0.00000E+00     0.00
   80.00    15.00     -17.82 -999.99  -17.82    0.00000     0.00  LINEAR    5.68475E-04  -147.71    0.00000E+00     0.00
   85.00    15.00     -10.75 -999.99  -10.75    0.00000     0.00  LINEAR    1.28277E-03  -158.71    0.00000E+00     0.00
   90.00    15.00     -21.88 -999.99  -21.88    0.00000     0.00  LINEAR    3.56048E-04  -138.36    0.00000E+00     0.00
    0.00    20.00    -999.99 -999.99 -999.99    0.00000     0.00            0.00000E+00     0.00    0.00000E+00     0.00
    5.00    20.00     -14.60 -999.99  -14.60    0.00000     0.00  LINEAR    8.23108E-04     0.13    0.00000E+00     0.00
   10.00    20.00       8.57 -999.99    8.57    0.00000     0.00  LINEAR    1.18661E-02     0.00    0.00000E+00     0.00
   15.00    20.00       0.12 -999.99    0.12    0.00000     0.00  LINEAR    4.48429E-03     0.22    0.00000E+00     0.00
   20.00    20.00     -12.65 -999.99  -12.65    0.00000     0.00  LINEAR    1.03101E-03  -179.79    0.00000E+00     0.00
   25.00    20.00     -17.16 -999.99  -17.16    0.00000     0.00  LINEAR    6.13030E-04   179.83    0.00000E+00     0.00
   30.00    20.00     -38.36 -999.99  -38.36    0.00000     0.00  LINEAR    5.33872E-05  -174.79    0.00000E+00     0.00
   35.00    20.00       0.93 -999.99    0.93    0.00000     0.00  LINEAR    4.92332E-03    -3.63    0.00000E+00     0.00
   40.00    20.00     -18.04 -999.99  -18.04    0.00000     0.00  LINEAR    5.53898E-04  -137.67    0.00000E+00     0.00
   45.00    20.00     -20.97 -999.99  -20.97    0.00000     0.00  LINEAR    3.95254E-04  -174.03    0.00000E+00     0.00
   50.00    20.00     -26.84 -999.99  -26.84    0.00000     0.00  LINEAR    2.01106E-04     1.46    0.00000E+00     0.00
   55.00    20.00     -41.67 -999.99  -41.67    0.00000     0.00  LINEAR    3.64897E-05   -67.95    0.00000E+00     0.00
   60.00    20.00     -10.85 -999.99  -10.85    0.00000     0.00  LINEAR    1.26794E-03  -173.69    0.00000E+00     0.00
   65.00    20.00     -14.21 -999.99  -14.21    0.00000     0.00  LINEAR    8.61193E-04  -161.62    0.00000E+00     0.00
   70.00    20.00     -25.41 -999.99  -25.41    0.00000     0.00  LINEAR    2.37197E-04   163.37    0.00000E+00     0.00
   75.00    20.00      -5.98 -999.99   -5.98    0.00000     0.00  LINEAR    2.22103E-03   172.22    0.00000E+00     0.00
   80.00    20.00      -3.83 -999.99   -3.83    0.00000     0.00  LINEAR    2.84521E-03    14.60    0.00000E+00     0.00
   85.00    20.00       6.13 -999.99    6.13    0.00000     0.00  LINEAR    8.95341E-03    12.42    0.00000E+00     0.00
   90.00    20.00      -0.88 -999.99   -0.88    0.00000     0.00  LINEAR    3.99687E-03    39.08    0.00000E+00     0.00
    0.00    25.00    -999.99 -999.99 -999.99    0.00000     0.00            0.00000E+00     0.00    0.00000E+00     0.00
    5.00    25.00     -18.42 -999.99  -18.42    0.00000     0.00  LINEAR    5.30573E-04     0.18    0.00000E+00     0.00
   10.00    25.00       6.64 -999.99    6.64    0.00000     0.00  LINEAR    9.49888E-03     0.00    0.00000E+00     0.00
   15.00    25.00      -3.75 -999.99   -3.75    0.00000     0.00  LINEAR    2.87124E-03     0.44    0.00000E+00     0.00
   20.00    25.00     -12.38 -999.99  -12.38    0.00000     0.00  LINEAR    1.06317E-03    -0.45    0.00000E+00     0.00
   25.00    25.00     -15.36 -999.99  -15.36    0.00000     0.00  LINEAR    7.54506E-04  -178.71    0.00000E+00     0.00
   30.00    25.00      -8.70 -999.99   -8.70    0.00000     0.00  LINEAR    1.62314E-03   179.03    0.00000E+00     0.00
   35.00    25.00      -6.24 -999.99   -6.24    0.00000     0.00  LINEAR    2.15570E-03    -5.96    0.00000E+00     0.00
   40.00    25.00     -17.55 -999.99  -17.55    0.00000     0.00  LINEAR    5.86447E-04  -142.13    0.00000E+00     0.00
   45.00    25.00     -11.29 -999.99  -11.29    0.00000     0.00  LINEAR    1.20556E-03    -1.25    0.00000E+00     0.00
   50.00    25.00     -16.90 -999.99  -16.90    0.00000     0.00  LINEAR    6.31526E-04   173.47    0.00000E+00     0.00
   55.00    25.00     -10.73 -999.99  -10.73    0.00000     0.00  LINEAR    1.28590E-03     3.39    0.00000E+00     0.00
   60.00    25.00      -9.80 -999.99   -9.80    0.00000     0.00  LINEAR    1.43145E-03  -170.85    0.00000E+00     0.00
   65.00    25.00      -3.60 -999.99   -3.60    0.00000     0.00  LINEAR    2.92056E-03  -164.42    0.00000E+00     0.00
   70.00    25.00     -13.57 -999.99  -13.57    0.00000     0.00  LINEAR    9.26870E-04   -31.17    0.00000E+00     0.00
   75.00    25.00     -21.25 -999.99  -21.25    0.00000     0.00  LINEAR    3.83091E-04   170.47    0.00000E+00     0.00
   80.00    25.00      -9.92 -999.99   -9.92    0.00000     0.00  LINEAR    1.41167E-03    19.92    0.00000E+00     0.00
   85.00    25.00       2.24 -999.99    2.24    0.00000     0.00  LINEAR    5.72422E-03    13.24    0.00000E+00     0.00
   90.00    25.00      -4.49 -999.99   -4.49    0.00000     0.00  LINEAR    2.63782E-03    39.69    0.00000E+00     0.00
    0.00    30.00    -999.99 -999.99 -999.99    0.00000     0.00            0.00000E+00     0.00    0.00000E+00     0.00
    5.00    30.00     -26.11 -999.99  -26.11    0.00000     0.00  LINEAR    2.18774E-04     0.36    0.00000E+00     0.00
   10.00    30.00       3.96 -999.99    3.96    0.00000     0.00  LINEAR    6.97846E-03     0.00    0.00000E+00     0.00
   15.00    30.00     -24.99 -999.99  -24.99    0.00000     0.00  LINEAR    2.49044E-04     6.62    0.00000E+00     0.00
   20.00    30.00      -7.55 -999.99   -7.55    0.00000     0.00  LINEAR    1.85338E-03    -0.08    0.00000E+00     0.00
   25.00    30.00     -15.67 -999.99  -15.67    0.00000     0.00  LINEAR    7.27550E-04    -2.96    0.00000E+00     0.00
   30.00    30.00     -12.04 -999.99  -12.04    0.00000     0.00  LINEAR    1.10611E-03   178.07    0.00000E+00     0.00
   35.00    30.00     -13.20 -999.99  -13.20    0.00000     0.00  LINEAR    9.67714E-04  -172.90    0.00000E+00     0.00
   40.00    30.00     -18.72 -999.99  -18.72    0.00000     0.00  LINEAR    5.12655E-04  -145.30    0.00000E+00     0.00
   45.00    30.00       3.62 -999.99    3.62    0.00000     0.00  LINEAR    6.70737E-03     0.43    0.00000E+00     0.00
   50.00    30.00     -13.38 -999.99  -13.38    0.00000     0.00  LINEAR    9.48073E-04    11.74    0.00000E+00     0.00
   55.00    30.00      -6.89 -999.99   -6.89    0.00000     0.00  LINEAR    2.00064E-03     6.63    0.00000E+00     0.00
   60.00    30.00      -3.80 -999.99   -3.80    0.00000     0.00  LINEAR    2.85546E-03     3.93    0.00000E+00     0.00
   65.00    30.00     -17.04 -999.99  -17.04    0.00000     0.00  LINEAR    6.21577E-04  -151.13    0.00000E+00     0.00
   70.00    30.00     -13.47 -999.99  -13.47    0.00000     0.00  LINEAR    9.37757E-04   -25.34    0.00000E+00     0.00
   75.00    30.00     -13.35 -999.99  -13.35    0.00000     0.00  LINEAR    9.51225E-04    -6.19    0.00000E+00     0.00
   80.00    30.00     -17.73 -999.99  -17.73    0.00000     0.00  LINEAR    5.74154E-04   177.88    0.00000E+00     0.00
   85.00    30.00     -16.14 -999.99  -16.14    0.00000     0.00  LINEAR    6.89606E-04   179.79    0.00000E+00     0.00
   90.00    30.00     -26.43 -999.99  -26.43    0.00000     0.00  LINEAR    2.10837E-04  -166.39    0.00000E+00     0.00
    0.00    35.00    -999.99 -999.99 -999.99    0.00000     0.00            0.00000E+00     0.00    0.00000E+00     0.00
    5.00    35.00     -33.67 -999.99  -33.67    0.00000     0.00  LINEAR    9.16424E-05   179.30    0.00000E+00     0.00
   10.00    35.00       0.21 -999.99    0.21    0.00000     0.00  LINEAR    4.53155E-03     0.00    0.00000E+00     0.00
   15.00    35.00      -3.26 -999.99   -3.26    0.00000     0.00  LINEAR    3.03644E-03   179.32    0.00000E+00     0.00
   20.00    35.00     -15.23 -999.99  -15.23    0.00000     0.00  LINEAR    7.65520E-04     1.24    0.00000E+00     0.00
   25.00    35.00      -9.64 -999.99   -9.64    0.00000     0.00  LINEAR    1.45740E-03    -1.69    0.00000E+00     0.00
   30.00    35.00     -10.50 -999.99  -10.50    0.00000     0.00  LINEAR    1.32051E-03     1.22    0.00000E+00     0.00
   35.00    35.00     -23.14 -999.99  -23.14    0.00000     0.00  LINEAR    3.07882E-04    -3.52    0.00000E+00     0.00
   40.00    35.00     -22.65 -999.99  -22.65    0.00000     0.00  LINEAR    3.25781E-04  -142.25    0.00000E+00     0.00
   45.00    35.00       7.42 -999.99    7.42    0.00000     0.00  LINEAR    1.03894E-02     0.42    0.00000E+00     0.00
   50.00    35.00      -1.70 -999.99   -1.70    0.00000     0.00  LINEAR    3.63588E-03     4.37    0.00000E+00     0.00
   55.00    35.00     -22.44 -999.99  -22.44    0.00000     0.00  LINEAR    3.34047E-04   140.25    0.00000E+00     0.00
   60.00    35.00      -9.10 -999.99   -9.10    0.00000     0.00  LINEAR    1.55058E-03     7.11    0.00000E+00     0.00
   65.00    35.00     -25.45 -999.99  -25.45    0.00000     0.00  LINEAR    2.36033E-04    12.05    0.00000E+00     0.00
   70.00    35.00     -50.36 -999.99  -50.36    0.00000     0.00  LINEAR    1.34134E-05    45.00    0.00000E+00     0.00
   75.00    35.00     -27.40 -999.99  -27.40    0.00000     0.00  LINEAR    1.88586E-04   170.25    0.00000E+00     0.00
   80.00    35.00     -23.66 -999.99  -23.66    0.00000     0.00  LINEAR    2.90072E-04    18.32    0.00000E+00     0.00
   85.00    35.00     -12.87 -999.99  -12.87    0.00000     0.00  LINEAR    1.00531E-03    13.63    0.00000E+00     0.00
   90.00    35.00     -20.33 -999.99  -20.33    0.00000     0.00  LINEAR    4.25487E-04    40.15    0.00000E+00     0.00
    0.00    40.00    -999.99 -999.99 -999.99    0.00000     0.00            0.00000E+00     0.00    0.00000E+00     0.00
    5.00    40.00     -21.28 -999.99  -21.28    0.00000     0.00  LINEAR    3.81514E-04   179.87    0.00000E+00     0.00
   10.00    40.00      -5.35 -999.99   -5.35    0.00000     0.00  LINEAR    2.38835E-03    -0.01    0.00000E+00     0.00
   15.00    40.00       3.01 -999.99    3.01    0.00000     0.00  LINEAR    6.25235E-03   179.61    0.00000E+00     0.00
   20.00    40.00      -9.51 -999.99   -9.51    0.00000     0.00  LINEAR    1.47871E-03   178.25    0.00000E+00     0.00
   25.00    40.00     -30.00 -999.99  -30.00    0.00000     0.00  LINEAR    1.39797E-04  -171.58    0.00000E+00     0.00
   30.00    40.00     -10.99 -999.99  -10.99    0.00000     0.00  LINEAR    1.24711E-03     0.79    0.00000E+00     0.00
   35.00    40.00      -1.34 -999.99   -1.34    0.00000     0.00  LINEAR    3.78910E-03     0.89    0.00000E+00     0.00
   40.00    40.00     -32.40 -999.99  -32.40    0.00000     0.00  LINEAR    1.06020E-04  -125.56    0.00000E+00     0.00
   45.00    40.00       3.64 -999.99    3.64    0.00000     0.00  LINEAR    6.72692E-03     0.01    0.00000E+00     0.00
   50.00    40.00      -5.25 -999.99   -5.25    0.00000     0.00  LINEAR    2.41662E-03     5.24    0.00000E+00     0.00
   55.00    40.00     -20.27 -999.99  -20.27    0.00000     0.00  LINEAR    4.28826E-04   135.22    0.00000E+00     0.00
   60.00    40.00     -16.97 -999.99  -16.97    0.00000     0.00  LINEAR    6.27031E-04    15.41    0.00000E+00     0.00
   65.00    40.00     -16.62 -999.99  -16.62    0.00000     0.00  LINEAR    6.52797E-04  -169.26    0.00000E+00     0.00
   70.00    40.00     -22.07 -999.99  -22.07    0.00000     0.00  LINEAR    3.48430E-04   -17.25    0.00000E+00     0.00
   75.00    40.00     -18.88 -999.99  -18.88    0.00000     0.00  LINEAR    5.03052E-04    -2.17    0.00000E+00     0.00
   80.00    40.00     -26.89 -999.99  -26.89    0.00000     0.00  LINEAR    2.00146E-04  -161.73    0.00000E+00     0.00
   85.00    40.00     -24.69 -999.99  -24.69    0.00000     0.00  LINEAR    2.57561E-04  -164.58    0.00000E+00     0.00
   90.00    40.00     -35.25 -999.99  -35.25    0.00000     0.00  LINEAR    7.63658E-05  -150.55    0.00000E+00     0.00
    0.00    45.00    -999.99 -999.99 -999.99    0.00000     0.00            0.00000E+00     0.00    0.00000E+00     0.00
    5.00    45.00     -16.86 -999.99  -16.86    0.00000     0.00  LINEAR    6.34889E-04   179.93    0.00000E+00     0.00
   10.00    45.00     -15.51 -999.99  -15.51    0.00000     0.00  LINEAR    7.41191E-04    -0.05    0.00000E+00     0.00
   15.00    45.00       5.71 -999.99    5.71    0.00000     0.00  LINEAR    8.52936E-03   179.70    0.00000E+00     0.00
   20.00    45.00      -3.74 -999.99   -3.74    0.00000     0.00  LINEAR    2.87413E-03   178.52    0.00000E+00     0.00
   25.00    45.00      -6.90 -999.99   -6.90    0.00000     0.00  LINEAR    1.99737E-03   179.24    0.00000E+00     0.00
   30.00    45.00      -2.13 -999.99   -2.13    0.00000     0.00  LINEAR    3.45874E-03   179.67    0.00000E+00     0.00
   35.00    45.00      -1.84 -999.99   -1.84    0.00000     0.00  LINEAR    3.57614E-03     1.33    0.00000E+00     0.00
   40.00    45.00     -38.49 -999.99  -38.49    0.00000     0.00  LINEAR    5.26053E-05    32.90    0.00000E+00     0.00
   45.00    45.00     -12.92 -999.99  -12.92    0.00000     0.00  LINEAR    9.98700E-04    -2.52    0.00000E+00     0.00
   50.00    45.00     -13.40 -999.99  -13.40    0.00000     0.00  LINEAR    9.44964E-04   175.96    0.00000E+00     0.00
   55.00    45.00      -4.38 -999.99   -4.38    0.00000     0.00  LINEAR    2.67134E-03     9.79    0.00000E+00     0.00
   60.00    45.00       2.05 -999.99    2.05    0.00000     0.00  LINEAR    5.59600E-03     6.16    0.00000E+00     0.00
   65.00    45.00      -8.85 -999.99   -8.85    0.00000     0.00  LINEAR    1.59599E-03     5.59    0.00000E+00     0.00
   70.00    45.00     -28.91 -999.99  -28.91    0.00000     0.00  LINEAR    1.58544E-04   -22.18    0.00000E+00     0.00
   75.00    45.00     -41.61 -999.99  -41.61    0.00000     0.00  LINEAR    3.67517E-05  -158.65    0.00000E+00     0.00
   80.00    45.00     -20.67 -999.99  -20.67    0.00000     0.00  LINEAR    4.09515E-04     4.06    0.00000E+00     0.00
   85.00    45.00      -9.97 -999.99   -9.97    0.00000     0.00  LINEAR    1.40371E-03     9.26    0.00000E+00     0.00
   90.00    45.00     -16.04 -999.99  -16.04    0.00000     0.00  LINEAR    6.97443E-04    32.54    0.00000E+00     0.00
    0.00    50.00    -999.99 -999.99 -999.99    0.00000     0.00            0.00000E+00     0.00    0.00000E+00     0.00
    5.00    50.00     -14.43 -999.99  -14.43    0.00000     0.00  LINEAR    8.40135E-04   179.96    0.00000E+00     0.00
   10.00    50.00     -23.49 -999.99  -23.49    0.00000     0.00  LINEAR    2.95960E-04  -179.79    0.00000E+00     0.00
   15.00    50.00       6.38 -999.99    6.38    0.00000     0.00  LINEAR    9.21683E-03   179.73    0.00000E+00     0.00
   20.00    50.00     -10.09 -999.99  -10.09    0.00000     0.00  LINEAR    1.38405E-03   176.22    0.00000E+00     0.00
   25.00    50.00     -14.28 -999.99  -14.28    0.00000     0.00  LINEAR    8.54355E-04     5.29    0.00000E+00     0.00
   30.00    50.00       4.56 -999.99    4.56    0.00000     0.00  LINEAR    7.47699E-03   179.67    0.00000E+00     0.00
   35.00    50.00     -17.99 -999.99  -17.99    0.00000     0.00  LINEAR    5.57165E-04   175.65    0.00000E+00     0.00
   40.00    50.00     -36.55 -999.99  -36.55    0.00000     0.00  LINEAR    6.57618E-05    66.52    0.00000E+00     0.00
   45.00    50.00     -29.33 -999.99  -29.33    0.00000     0.00  LINEAR    1.51020E-04     0.76    0.00000E+00     0.00
   50.00    50.00     -15.54 -999.99  -15.54    0.00000     0.00  LINEAR    7.39003E-04  -176.65    0.00000E+00     0.00
   55.00    50.00      -8.06 -999.99   -8.06    0.00000     0.00  LINEAR    1.74784E-03     6.94    0.00000E+00     0.00
   60.00    50.00     -11.87 -999.99  -11.87    0.00000     0.00  LINEAR    1.12736E-03    11.86    0.00000E+00     0.00
[...]
   40.00   315.00     -38.49 -999.99  -38.49    0.00000     0.00  LINEAR    5.26053E-05    32.90    0.00000E+00     0.00
   45.00   315.00     -12.92 -999.99  -12.92    0.00000     0.00  LINEAR    9.98700E-04    -2.52    0.00000E+00     0.00
   50.00   315.00     -13.40 -999.99  -13.40    0.00000     0.00  LINEAR    9.44964E-04   175.96    0.00000E+00     0.00
   55.00   315.00      -4.38 -999.99   -4.38    0.00000     0.00  LINEAR    2.67134E-03     9.79    0.00000E+00     0.00
   60.00   315.00       2.05 -999.99    2.05    0.00000     0.00  LINEAR    5.59600E-03     6.16    0.00000E+00     0.00
   65.00   315.00      -8.85 -999.99   -8.85    0.00000     0.00  LINEAR    1.59599E-03     5.59    0.00000E+00     0.00
   70.00   315.00     -28.91 -999.99  -28.91    0.00000     0.00  LINEAR    1.58544E-04   -22.18    0.00000E+00     0.00
   75.00   315.00     -41.61 -999.99  -41.61    0.00000     0.00  LINEAR    3.67517E-05  -158.65    0.00000E+00     0.00
   80.00   315.00     -20.67 -999.99  -20.67    0.00000     0.00  LINEAR    4.09515E-04     4.06    0.00000E+00     0.00
   85.00   315.00      -9.97 -999.99   -9.97    0.00000     0.00  LINEAR    1.40371E-03     9.26    0.00000E+00     0.00
   90.00   315.00     -16.04 -999.99  -16.04    0.00000     0.00  LINEAR    6.97443E-04    32.54    0.00000E+00     0.00
    0.00   320.00    -999.99 -999.99 -999.99    0.00000     0.00            0.00000E+00     0.00    0.00000E+00     0.00
    5.00   320.00     -21.28 -999.99  -21.28    0.00000     0.00  LINEAR    3.81514E-04   179.87    0.00000E+00     0.00
   10.00   320.00      -5.35 -999.99   -5.35    0.00000     0.00  LINEAR    2.38835E-03    -0.01    0.00000E+00     0.00
   15.00   320.00       3.01 -999.99    3.01    0.00000     0.00  LINEAR    6.25235E-03   179.61    0.00000E+00     0.00
   20.00   320.00      -9.51 -999.99   -9.51    0.00000     0.00  LINEAR    1.47871E-03   178.25    0.00000E+00     0.00
   25.00   320.00     -30.00 -999.99  -30.00    0.00000     0.00  LINEAR    1.39797E-04  -171.58    0.00000E+00     0.00
   30.00   320.00     -10.99 -999.99  -10.99    0.00000     0.00  LINEAR    1.24711E-03     0.79    0.00000E+00     0.00
   35.00   320.00      -1.34 -999.99   -1.34    0.00000     0.00  LINEAR    3.78910E-03     0.89    0.00000E+00     0.00
   40.00   320.00     -32.40 -999.99  -32.40    0.00000     0.00  LINEAR    1.06020E-04  -125.56    0.00000E+00     0.00
   45.00   320.00       3.64 -999.99    3.64    0.00000     0.00  LINEAR    6.72692E-03     0.01    0.00000E+00     0.00
   50.00   320.00      -5.25 -999.99   -5.25    0.00000     0.00  LINEAR    2.41662E-03     5.24    0.00000E+00     0.00
   55.00   320.00     -20.27 -999.99  -20.27    0.00000     0.00  LINEAR    4.28826E-04   135.22    0.00000E+00     0.00
   60.00   320.00     -16.97 -999.99  -16.97    0.00000     0.00  LINEAR    6.27031E-04    15.41    0.00000E+00     0.00
   65.00   320.00     -16.62 -999.99  -16.62    0.00000     0.00  LINEAR    6.52797E-04  -169.26    0.00000E+00     0.00
   70.00   320.00     -22.07 -999.99  -22.07    0.00000     0.00  LINEAR    3.48430E-04   -17.25    0.00000E+00     0.00
   75.00   320.00     -18.88 -999.99  -18.88    0.00000     0.00  LINEAR    5.03052E-04    -2.17    0.00000E+00     0.00
   80.00   320.00     -26.89 -999.99  -26.89    0.00000     0.00  LINEAR    2.00146E-04  -161.73    0.00000E+00     0.00
   85.00   320.00     -24.69 -999.99  -24.69    0.00000     0.00  LINEAR    2.57561E-04  -164.58    0.00000E+00     0.00
   90.00   320.00     -35.25 -999.99  -35.25    0.00000     0.00  LINEAR    7.63658E-05  -150.55    0.00000E+00     0.00
    0.00   325.00    -999.99 -999.99 -999.99    0.00000     0.00            0.00000E+00     0.00    0.00000E+00     0.00
    5.00   325.00     -33.67 -999.99  -33.67    0.00000     0.00  LINEAR    9.16424E-05   179.30    0.00000E+00     0.00
   10.00   325.00       0.21 -999.99    0.21    0.00000     0.00  LINEAR    4.53155E-03     0.00    0.00000E+00     0.00
   15.00   325.00      -3.26 -999.99   -3.26    0.00000     0.00  LINEAR    3.03644E-03   179.32    0.00000E+00     0.00
   20.00   325.00     -15.23 -999.99  -15.23    0.00000     0.00  LINEAR    7.65520E-04     1.24    0.00000E+00     0.00
   25.00   325.00      -9.64 -999.99   -9.64    0.00000     0.00  LINEAR    1.45740E-03    -1.69    0.00000E+00     0.00
   30.00   325.00     -10.50 -999.99  -10.50    0.00000     0.00  LINEAR    1.32051E-03     1.22    0.00000E+00     0.00
   35.00   325.00     -23.14 -999.99  -23.14    0.00000     0.00  LINEAR    3.07882E-04    -3.52    0.00000E+00     0.00
   40.00   325.00     -22.65 -999.99  -22.65    0.00000     0.00  LINEAR    3.25781E-04  -142.25    0.00000E+00     0.00
   45.00   325.00       7.42 -999.99    7.42    0.00000     0.00  LINEAR    1.03894E-02     0.42    0.00000E+00     0.00
   50.00   325.00      -1.70 -999.99   -1.70    0.00000     0.00  LINEAR    3.63588E-03     4.37    0.00000E+00     0.00
   55.00   325.00     -22.44 -999.99  -22.44    0.00000     0.00  LINEAR    3.34047E-04   140.25    0.00000E+00     0.00
   60.00   325.00      -9.10 -999.99   -9.10    0.00000     0.00  LINEAR    1.55058E-03     7.11    0.00000E+00     0.00
   65.00   325.00     -25.45 -999.99  -25.45    0.00000     0.00  LINEAR    2.36033E-04    12.05    0.00000E+00     0.00
   70.00   325.00     -50.36 -999.99  -50.36    0.00000     0.00  LINEAR    1.34134E-05    45.00    0.00000E+00     0.00
   75.00   325.00     -27.40 -999.99  -27.40    0.00000     0.00  LINEAR    1.88586E-04   170.25    0.00000E+00     0.00
   80.00   325.00     -23.66 -999.99  -23.66    0.00000     0.00  LINEAR    2.90072E-04    18.32    0.00000E+00     0.00
   85.00   325.00     -12.87 -999.99  -12.87    0.00000     0.00  LINEAR    1.00531E-03    13.63    0.00000E+00     0.00
   90.00   325.00     -20.33 -999.99  -20.33    0.00000     0.00  LINEAR    4.25487E-04    40.15    0.00000E+00     0.00
    0.00   330.00    -999.99 -999.99 -999.99    0.00000     0.00            0.00000E+00     0.00    0.00000E+00     0.00
    5.00   330.00     -26.11 -999.99  -26.11    0.00000     0.00  LINEAR    2.18774E-04     0.36    0.00000E+00     0.00
   10.00   330.00       3.96 -999.99    3.96    0.00000     0.00  LINEAR    6.97846E-03     0.00    0.00000E+00     0.00
   15.00   330.00     -24.99 -999.99  -24.99    0.00000     0.00  LINEAR    2.49044E-04     6.62    0.00000E+00     0.00
   20.00   330.00      -7.55 -999.99   -7.55    0.00000     0.00  LINEAR    1.85338E-03    -0.08    0.00000E+00     0.00
   25.00   330.00     -15.67 -999.99  -15.67    0.00000     0.00  LINEAR    7.27550E-04    -2.96    0.00000E+00     0.00
   30.00   330.00     -12.04 -999.99  -12.04    0.00000     0.00  LINEAR    1.10611E-03   178.07    0.00000E+00     0.00
   35.00   330.00     -13.20 -999.99  -13.20    0.00000     0.00  LINEAR    9.67714E-04  -172.90    0.00000E+00     0.00
   40.00   330.00     -18.72 -999.99  -18.72    0.00000     0.00  LINEAR    5.12655E-04  -145.30    0.00000E+00     0.00
   45.00   330.00       3.62 -999.99    3.62    0.00000     0.00  LINEAR    6.70737E-03     0.43    0.00000E+00     0.00
   50.00   330.00     -13.38 -999.99  -13.38    0.00000     0.00  LINEAR    9.48073E-04    11.74    0.00000E+00     0.00
   55.00   330.00      -6.89 -999.99   -6.89    0.00000     0.00  LINEAR    2.00064E-03     6.63    0.00000E+00     0.00
   60.00   330.00      -3.80 -999.99   -3.80    0.00000     0.00  LINEAR    2.85546E-03     3.93    0.00000E+00     0.00
   65.00   330.00     -17.04 -999.99  -17.04    0.00000     0.00  LINEAR    6.21577E-04  -151.13    0.00000E+00     0.00
   70.00   330.00     -13.47 -999.99  -13.47    0.00000     0.00  LINEAR    9.37757E-04   -25.34    0.00000E+00     0.00
   75.00   330.00     -13.35 -999.99  -13.35    0.00000     0.00  LINEAR    9.51225E-04    -6.19    0.00000E+00     0.00
   80.00   330.00     -17.73 -999.99  -17.73    0.00000     0.00  LINEAR    5.74154E-04   177.88    0.00000E+00     0.00
   85.00   330.00     -16.14 -999.99  -16.14    0.00000     0.00  LINEAR    6.89606E-04   179.79    0.00000E+00     0.00
   90.00   330.00     -26.43 -999.99  -26.43    0.00000     0.00  LINEAR    2.10837E-04  -166.39    0.00000E+00     0.00
    0.00   335.00    -999.99 -999.99 -999.99    0.00000     0.00            0.00000E+00     0.00    0.00000E+00     0.00
    5.00   335.00     -18.42 -999.99  -18.42    0.00000     0.00  LINEAR    5.30573E-04     0.18    0.00000E+00     0.00
   10.00   335.00       6.64 -999.99    6.64    0.00000     0.00  LINEAR    9.49888E-03     0.00    0.00000E+00     0.00
   15.00   335.00      -3.75 -999.99   -3.75    0.00000     0.00  LINEAR    2.87124E-03     0.44    0.00000E+00     0.00
   20.00   335.00     -12.38 -999.99  -12.38    0.00000     0.00  LINEAR    1.06317E-03    -0.45    0.00000E+00     0.00
   25.00   335.00     -15.36 -999.99  -15.36    0.00000     0.00  LINEAR    7.54506E-04  -178.71    0.00000E+00     0.00
   30.00   335.00      -8.70 -999.99   -8.70    0.00000     0.00  LINEAR    1.62314E-03   179.03    0.00000E+00     0.00
   35.00   335.00      -6.24 -999.99   -6.24    0.00000     0.00  LINEAR    2.15570E-03    -5.96    0.00000E+00     0.00
   40.00   335.00     -17.55 -999.99  -17.55    0.00000     0.00  LINEAR    5.86447E-04  -142.13    0.00000E+00     0.00
   45.00   335.00     -11.29 -999.99  -11.29    0.00000     0.00  LINEAR    1.20556E-03    -1.25    0.00000E+00     0.00
   50.00   335.00     -16.90 -999.99  -16.90    0.00000     0.00  LINEAR    6.31526E-04   173.47    0.00000E+00     0.00
   55.00   335.00     -10.73 -999.99  -10.73    0.00000     0.00  LINEAR    1.28590E-03     3.39    0.00000E+00     0.00
   60.00   335.00      -9.80 -999.99   -9.80    0.00000     0.00  LINEAR    1.43145E-03  -170.85    0.00000E+00     0.00
   65.00   335.00      -3.60 -999.99   -3.60    0.00000     0.00  LINEAR    2.92056E-03  -164.42    0.00000E+00     0.00
   70.00   335.00     -13.57 -999.99  -13.57    0.00000     0.00  LINEAR    9.26870E-04   -31.17    0.00000E+00     0.00
   75.00   335.00     -21.25 -999.99  -21.25    0.00000     0.00  LINEAR    3.83091E-04   170.47    0.00000E+00     0.00
   80.00   335.00      -9.92 -999.99   -9.92    0.00000     0.00  LINEAR    1.41167E-03    19.92    0.00000E+00     0.00
   85.00   335.00       2.24 -999.99    2.24    0.00000     0.00  LINEAR    5.72422E-03    13.24    0.00000E+00     0.00
   90.00   335.00      -4.49 -999.99   -4.49    0.00000     0.00  LINEAR    2.63782E-03    39.69    0.00000E+00     0.00
    0.00   340.00    -999.99 -999.99 -999.99    0.00000     0.00            0.00000E+00     0.00    0.00000E+00     0.00
    5.00   340.00     -14.60 -999.99  -14.60    0.00000     0.00  LINEAR    8.23108E-04     0.13    0.00000E+00     0.00
   10.00   340.00       8.57 -999.99    8.57    0.00000     0.00  LINEAR    1.18661E-02     0.00    0.00000E+00     0.00
   15.00   340.00       0.12 -999.99    0.12    0.00000     0.00  LINEAR    4.48429E-03     0.22    0.00000E+00     0.00
   20.00   340.00     -12.65 -999.99  -12.65    0.00000     0.00  LINEAR    1.03101E-03  -179.79    0.00000E+00     0.00
   25.00   340.00     -17.16 -999.99  -17.16    0.00000     0.00  LINEAR    6.13030E-04   179.83    0.00000E+00     0.00
   30.00   340.00     -38.36 -999.99  -38.36    0.00000     0.00  LINEAR    5.33872E-05  -174.79    0.00000E+00     0.00
   35.00   340.00       0.93 -999.99    0.93    0.00000     0.00  LINEAR    4.92332E-03    -3.63    0.00000E+00     0.00
   40.00   340.00     -18.04 -999.99  -18.04    0.00000     0.00  LINEAR    5.53898E-04  -137.67    0.00000E+00     0.00
   45.00   340.00     -20.97 -999.99  -20.97    0.00000     0.00  LINEAR    3.95254E-04  -174.03    0.00000E+00     0.00
   50.00   340.00     -26.84 -999.99  -26.84    0.00000     0.00  LINEAR    2.01106E-04     1.46    0.00000E+00     0.00
   55.00   340.00     -41.67 -999.99  -41.67    0.00000     0.00  LINEAR    3.64897E-05   -67.95    0.00000E+00     0.00
   60.00   340.00     -10.85 -999.99  -10.85    0.00000     0.00  LINEAR    1.26794E-03  -173.69    0.00000E+00     0.00
   65.00   340.00     -14.21 -999.99  -14.21    0.00000     0.00  LINEAR    8.61193E-04  -161.62    0.00000E+00     0.00
   70.00   340.00     -25.41 -999.99  -25.41    0.00000     0.00  LINEAR    2.37197E-04   163.37    0.00000E+00     0.00
   75.00   340.00      -5.98 -999.99   -5.98    0.00000     0.00  LINEAR    2.22103E-03   172.22    0.00000E+00     0.00
   80.00   340.00      -3.83 -999.99   -3.83    0.00000     0.00  LINEAR    2.84521E-03    14.60    0.00000E+00     0.00
   85.00   340.00       6.13 -999.99    6.13    0.00000     0.00  LINEAR    8.95341E-03    12.42    0.00000E+00     0.00
   90.00   340.00      -0.88 -999.99   -0.88    0.00000     0.00  LINEAR    3.99687E-03    39.08    0.00000E+00     0.00
    0.00   345.00    -999.99 -999.99 -999.99    0.00000     0.00            0.00000E+00     0.00    0.00000E+00     0.00
    5.00   345.00     -12.28 -999.99  -12.28    0.00000     0.00  LINEAR    1.07605E-03     0.11    0.00000E+00     0.00
   10.00   345.00       9.94 -999.99    9.94    0.00000     0.00  LINEAR    1.38877E-02     0.00    0.00000E+00     0.00
   15.00   345.00       1.31 -999.99    1.31    0.00000     0.00  LINEAR    5.14088E-03     0.17    0.00000E+00     0.00
   20.00   345.00      -2.39 -999.99   -2.39    0.00000     0.00  LINEAR    3.35918E-03   179.90    0.00000E+00     0.00
   25.00   345.00      -7.87 -999.99   -7.87    0.00000     0.00  LINEAR    1.78679E-03     0.31    0.00000E+00     0.00
   30.00   345.00     -34.13 -999.99  -34.13    0.00000     0.00  LINEAR    8.69251E-05   -32.00    0.00000E+00     0.00
   35.00   345.00      -5.93 -999.99   -5.93    0.00000     0.00  LINEAR    2.23367E-03    -9.39    0.00000E+00     0.00
   40.00   345.00     -19.46 -999.99  -19.46    0.00000     0.00  LINEAR    4.70464E-04  -137.15    0.00000E+00     0.00
   45.00   345.00     -23.37 -999.99  -23.37    0.00000     0.00  LINEAR    2.99994E-04    -0.54    0.00000E+00     0.00
   50.00   345.00     -16.74 -999.99  -16.74    0.00000     0.00  LINEAR    6.43907E-04    -1.03    0.00000E+00     0.00
   55.00   345.00     -21.69 -999.99  -21.69    0.00000     0.00  LINEAR    3.63911E-04     5.62    0.00000E+00     0.00
   60.00   345.00      -9.62 -999.99   -9.62    0.00000     0.00  LINEAR    1.46000E-03     8.60    0.00000E+00     0.00
   65.00   345.00     -31.00 -999.99  -31.00    0.00000     0.00  LINEAR    1.24667E-04   140.14    0.00000E+00     0.00
   70.00   345.00     -20.61 -999.99  -20.61    0.00000     0.00  LINEAR    4.12252E-04     1.03    0.00000E+00     0.00
   75.00   345.00     -12.78 -999.99  -12.78    0.00000     0.00  LINEAR    1.01513E-03    -0.95    0.00000E+00     0.00
   80.00   345.00     -17.82 -999.99  -17.82    0.00000     0.00  LINEAR    5.68475E-04  -147.71    0.00000E+00     0.00
   85.00   345.00     -10.75 -999.99  -10.75    0.00000     0.00  LINEAR    1.28277E-03  -158.71    0.00000E+00     0.00
   90.00   345.00     -21.88 -999.99  -21.88    0.00000     0.00  LINEAR    3.56048E-04  -138.36    0.00000E+00     0.00
    0.00   350.00    -999.99 -999.99 -999.99    0.00000     0.00            0.00000E+00     0.00    0.00000E+00     0.00
    5.00   350.00     -10.83 -999.99  -10.83    0.00000     0.00  LINEAR    1.27126E-03     0.10    0.00000E+00     0.00
   10.00   350.00      10.85 -999.99   10.85    0.00000     0.00  LINEAR    1.54211E-02     0.00    0.00000E+00     0.00
   15.00   350.00       1.35 -999.99    1.35    0.00000     0.00  LINEAR    5.16816E-03     0.15    0.00000E+00     0.00
   20.00   350.00       1.30 -999.99    1.30    0.00000     0.00  LINEAR    5.13847E-03   179.83    0.00000E+00     0.00
   25.00   350.00       1.46 -999.99    1.46    0.00000     0.00  LINEAR    5.23381E-03     0.08    0.00000E+00     0.00
   30.00   350.00      -2.43 -999.99   -2.43    0.00000     0.00  LINEAR    3.34388E-03  -178.63    0.00000E+00     0.00
   35.00   350.00       2.23 -999.99    2.23    0.00000     0.00  LINEAR    5.71411E-03  -176.19    0.00000E+00     0.00
   40.00   350.00     -21.00 -999.99  -21.00    0.00000     0.00  LINEAR    3.93916E-04  -142.84    0.00000E+00     0.00
   45.00   350.00     -33.48 -999.99  -33.48    0.00000     0.00  LINEAR    9.36308E-05   170.78    0.00000E+00     0.00
   50.00   350.00     -33.26 -999.99  -33.26    0.00000     0.00  LINEAR    9.61243E-05   -11.95    0.00000E+00     0.00
   55.00   350.00     -29.24 -999.99  -29.24    0.00000     0.00  LINEAR    1.52528E-04    14.54    0.00000E+00     0.00
   60.00   350.00     -18.63 -999.99  -18.63    0.00000     0.00  LINEAR    5.17537E-04    13.66    0.00000E+00     0.00
   65.00   350.00     -15.79 -999.99  -15.79    0.00000     0.00  LINEAR    7.18250E-04  -179.93    0.00000E+00     0.00
   70.00   350.00     -17.35 -999.99  -17.35    0.00000     0.00  LINEAR    6.00063E-04    -4.68    0.00000E+00     0.00
   75.00   350.00      -6.94 -999.99   -6.94    0.00000     0.00  LINEAR    1.98994E-03    -3.04    0.00000E+00     0.00
   80.00   350.00      -9.22 -999.99   -9.22    0.00000     0.00  LINEAR    1.53023E-03  -156.16    0.00000E+00     0.00
   85.00   350.00      -0.40 -999.99   -0.40    0.00000     0.00  LINEAR    4.22090E-03  -163.47    0.00000E+00     0.00
   90.00   350.00      -8.64 -999.99   -8.64    0.00000     0.00  LINEAR    1.63472E-03  -138.96    0.00000E+00     0.00
    0.00   355.00    -999.99 -999.99 -999.99    0.00000     0.00            0.00000E+00     0.00    0.00000E+00     0.00
    5.00   355.00     -10.02 -999.99  -10.02    0.00000     0.00  LINEAR    1.39448E-03     0.10    0.00000E+00     0.00
   10.00   355.00      11.37 -999.99   11.37    0.00000     0.00  LINEAR    1.63740E-02     0.00    0.00000E+00     0.00
   15.00   355.00       1.02 -999.99    1.02    0.00000     0.00  LINEAR    4.97241E-03     0.16    0.00000E+00     0.00
   20.00   355.00       2.84 -999.99    2.84    0.00000     0.00  LINEAR    6.13241E-03   179.80    0.00000E+00     0.00
   25.00   355.00       5.19 -999.99    5.19    0.00000     0.00  LINEAR    8.03791E-03     0.02    0.00000E+00     0.00
   30.00   355.00       5.40 -999.99    5.40    0.00000     0.00  LINEAR    8.23630E-03  -179.31    0.00000E+00     0.00
   35.00   355.00       9.96 -999.99    9.96    0.00000     0.00  LINEAR    1.39231E-02  -178.46    0.00000E+00     0.00
   40.00   355.00     -21.91 -999.99  -21.91    0.00000     0.00  LINEAR    3.54951E-04  -150.59    0.00000E+00     0.00
   45.00   355.00      -8.74 -999.99   -8.74    0.00000     0.00  LINEAR    1.61659E-03  -179.87    0.00000E+00     0.00
   50.00   355.00     -23.17 -999.99  -23.17    0.00000     0.00  LINEAR    3.07112E-04  -173.43    0.00000E+00     0.00
   55.00   355.00     -10.67 -999.99  -10.67    0.00000     0.00  LINEAR    1.29503E-03  -175.14    0.00000E+00     0.00
   60.00   355.00     -13.04 -999.99  -13.04    0.00000     0.00  LINEAR    9.85827E-04  -169.30    0.00000E+00     0.00
   65.00   355.00      -4.51 -999.99   -4.51    0.00000     0.00  LINEAR    2.63119E-03     8.01    0.00000E+00     0.00
   70.00   355.00      -8.21 -999.99   -8.21    0.00000     0.00  LINEAR    1.71770E-03   153.90    0.00000E+00     0.00
   75.00   355.00      -1.87 -999.99   -1.87    0.00000     0.00  LINEAR    3.56544E-03   171.80    0.00000E+00     0.00
   80.00   355.00      -3.92 -999.99   -3.92    0.00000     0.00  LINEAR    2.81627E-03    13.72    0.00000E+00     0.00
   85.00   355.00       3.55 -999.99    3.55    0.00000     0.00  LINEAR    6.65407E-03    12.49    0.00000E+00     0.00
   90.00   355.00      -3.96 -999.99   -3.96    0.00000     0.00  LINEAR    2.80196E-03    40.23    0.00000E+00     0.00






 ***** DATA CARD NO. 16   EN   0     0     0     0  0.00000E+00  0.00000E+00  0.00000E+00  0.00000E+00  0.00000E+00  0.00000E+00

 RUN TIME =     0.172
