1



                                 *********************************************

                                    NUMERICAL ELECTROMAGNETICS CODE (NEC-2D)

                                 *********************************************




                                     - - - - COMMENTS - - - -


                                                                                                     
                                                                                                     




                                 - - - STRUCTURE SPECIFICATION - - -

                                     COORDINATES MUST BE INPUT IN
                                     METERS OR BE SCALED TO METERS
                                     BEFORE STRUCTURE INPUT IS ENDED


  WIRE                                                                               NO. OF    FIRST  LAST     TAG
  NO.        X1         Y1         Z1          X2         Y2         Z2      RADIUS   SEG.     SEG.   SEG.     NO.
     1   -7.50000   -5.00000   -5.00000    -7.50000   -5.00000    5.00000    0.00100     20        1    20     101
     2   -2.50000   -5.00000   -5.00000    -2.50000   -5.00000    5.00000    0.00100     20       21    40     102
     3    2.50000   -5.00000   -5.00000     2.50000   -5.00000    5.00000    0.00100     20       41    60     103
     4    7.50000   -5.00000   -5.00000     7.50000   -5.00000    5.00000    0.00100     20       61    80     104
     5   -7.50000    0.00000   -5.00000    -7.50000    0.00000    5.00000    0.00100     20       81   100     201
     6   -2.50000    0.00000   -5.00000    -2.50000    0.00000    5.00000    0.00100     20      101   120     202
     7    2.50000    0.00000   -5.00000     2.50000    0.00000    5.00000    0.00100     20      121   140     203
     8    7.50000    0.00000   -5.00000     7.50000    0.00000    5.00000    0.00100     20      141   160     204
     9   -7.50000    5.00000   -5.00000    -7.50000    5.00000    5.00000    0.00100     20      161   180     301
    10   -2.50000    5.00000   -5.00000    -2.50000    5.00000    5.00000    0.00100     20      181   200     302
    11    2.50000    5.00000   -5.00000     2.50000    5.00000    5.00000    0.00100     20      201   220     303
    12    7.50000    5.00000   -5.00000     7.50000    5.00000    5.00000    0.00100     20      221   240     304

   TOTAL SEGMENTS USED=  240     NO. SEG. IN A SYMMETRIC CELL=  240     SYMMETRY FLAG=  0


         - MULTIPLE WIRE JUNCTIONS -
 JUNCTION    SEGMENTS  (- FOR END 1, + FOR END 2)
  NONE




                                 - - - - SEGMENTATION DATA - - - -

                                        COORDINATES IN METERS

                         I+ AND I- INDICATE THE SEGMENTS BEFORE AND AFTER I


  SEG.   COORDINATES OF SEG. CENTER     SEG.     ORIENTATION ANGLES    WIRE    CONNECTION DATA   TAG
  NO.       X         Y         Z       LENGTH     ALPHA     BETA      RADIUS    I-   I    I+    NO.
     1  -7.50000  -5.00000  -4.75000   0.50000   90.00000   0.00000   0.00100     0    1    2    101
     2  -7.50000  -5.00000  -4.25000   0.50000   90.00000   0.00000   0.00100     1    2    3    101
     3  -7.50000  -5.00000  -3.75000   0.50000   90.00000   0.00000   0.00100     2    3    4    101
     4  -7.50000  -5.00000  -3.25000   0.50000   90.00000   0.00000   0.00100     3    4    5    101
     5  -7.50000  -5.00000  -2.75000   0.50000   90.00000   0.00000   0.00100     4    5    6    101
     6  -7.50000  -5.00000  -2.25000   0.50000   90.00000   0.00000   0.00100     5    6    7    101
     7  -7.50000  -5.00000  -1.75000   0.50000   90.00000   0.00000   0.00100     6    7    8    101
     8  -7.50000  -5.00000  -1.25000   0.50000   90.00000   0.00000   0.00100     7    8    9    101
     9  -7.50000  -5.00000  -0.75000   0.50000   90.00000   0.00000   0.00100     8    9   10    101
    10  -7.50000  -5.00000  -0.25000   0.50000   90.00000   0.00000   0.00100     9   10   11    101
    11  -7.50000  -5.00000   0.25000   0.50000   90.00000   0.00000   0.00100    10   11   12    101
    12  -7.50000  -5.00000   0.75000   0.50000   90.00000   0.00000   0.00100    11   12   13    101
    13  -7.50000  -5.00000   1.25000   0.50000   90.00000   0.00000   0.00100    12   13   14    101
    14  -7.50000  -5.00000   1.75000   0.50000   90.00000   0.00000   0.00100    13   14   15    101
    15  -7.50000  -5.00000   2.25000   0.50000   90.00000   0.00000   0.00100    14   15   16    101
    16  -7.50000  -5.00000   2.75000   0.50000   90.00000   0.00000   0.00100    15   16   17    101
    17  -7.50000  -5.00000   3.25000   0.50000   90.00000   0.00000   0.00100    16   17   18    101
    18  -7.50000  -5.00000   3.75000   0.50000   90.00000   0.00000   0.00100    17   18   19    101
    19  -7.50000  -5.00000   4.25000   0.50000   90.00000   0.00000   0.00100    18   19   20    101
    20  -7.50000  -5.00000   4.75000   0.50000   90.00000   0.00000   0.00100    19   20    0    101
    21  -2.50000  -5.00000  -4.75000   0.50000   90.00000   0.00000   0.00100     0   21   22    102
    22  -2.50000  -5.00000  -4.25000   0.50000   90.00000   0.00000   0.00100    21   22   23    102
    23  -2.50000  -5.00000  -3.75000   0.50000   90.00000   0.00000   0.00100    22   23   24    102
    24  -2.50000  -5.00000  -3.25000   0.50000   90.00000   0.00000   0.00100    23   24   25    102
    25  -2.50000  -5.00000  -2.75000   0.50000   90.00000   0.00000   0.00100    24   25   26    102
    26  -2.50000  -5.00000  -2.25000   0.50000   90.00000   0.00000   0.00100    25   26   27    102
    27  -2.50000  -5.00000  -1.75000   0.50000   90.00000   0.00000   0.00100    26   27   28    102
    28  -2.50000  -5.00000  -1.25000   0.50000   90.00000   0.00000   0.00100    27   28   29    102
    29  -2.50000  -5.00000  -0.75000   0.50000   90.00000   0.00000   0.00100    28   29   30    102
    30  -2.50000  -5.00000  -0.25000   0.50000   90.00000   0.00000   0.00100    29   30   31    102
    31  -2.50000  -5.00000   0.25000   0.50000   90.00000   0.00000   0.00100    30   31   32    102
    32  -2.50000  -5.00000   0.75000   0.50000   90.00000   0.00000   0.00100    31   32   33    102
    33  -2.50000  -5.00000   1.25000   0.50000   90.00000   0.00000   0.00100    32   33   34    102
    34  -2.50000  -5.00000   1.75000   0.50000   90.00000   0.00000   0.00100    33   34   35    102
    35  -2.50000  -5.00000   2.25000   0.50000   90.00000   0.00000   0.00100    34   35   36    102
    36  -2.50000  -5.00000   2.75000   0.50000   90.00000   0.00000   0.00100    35   36   37    102
    37  -2.50000  -5.00000   3.25000   0.50000   90.00000   0.00000   0.00100    36   37   38    102
    38  -2.50000  -5.00000   3.75000   0.50000   90.00000   0.00000   0.00100    37   38   39    102
    39  -2.50000  -5.00000   4.25000   0.50000   90.00000   0.00000   0.00100    38   39   40    102
    40  -2.50000  -5.00000   4.75000   0.50000   90.00000   0.00000   0.00100    39   40    0    102
    41   2.50000  -5.00000  -4.75000   0.50000   90.00000   0.00000   0.00100     0   41   42    103
    42   2.50000  -5.00000  -4.25000   0.50000   90.00000   0.00000   0.00100    41   42   43    103
    43   2.50000  -5.00000  -3.75000   0.50000   90.00000   0.00000   0.00100    42   43   44    103
    44   2.50000  -5.00000  -3.25000   0.50000   90.00000   0.00000   0.00100    43   44   45    103
    45   2.50000  -5.00000  -2.75000   0.50000   90.00000   0.00000   0.00100    44   45   46    103
    46   2.50000  -5.00000  -2.25000   0.50000   90.00000   0.00000   0.00100    45   46   47    103
    47   2.50000  -5.00000  -1.75000   0.50000   90.00000   0.00000   0.00100    46   47   48    103
    48   2.50000  -5.00000  -1.25000   0.50000   90.00000   0.00000   0.00100    47   48   49    103
    49   2.50000  -5.00000  -0.75000   0.50000   90.00000   0.00000   0.00100    48   49   50    103
    50   2.50000  -5.00000  -0.25000   0.50000   90.00000   0.00000   0.00100    49   50   51    103
    51   2.50000  -5.00000   0.25000   0.50000   90.00000   0.00000   0.00100    50   51   52    103
    52   2.50000  -5.00000   0.75000   0.50000   90.00000   0.00000   0.00100    51   52   53    103
    53   2.50000  -5.00000   1.25000   0.50000   90.00000   0.00000   0.00100    52   53   54    103
    54   2.50000  -5.00000   1.75000   0.50000   90.00000   0.00000   0.00100    53   54   55    103
    55   2.50000  -5.00000   2.25000   0.50000   90.00000   0.00000   0.00100    54   55   56    103
    56   2.50000  -5.00000   2.75000   0.50000   90.00000   0.00000   0.00100    55   56   57    103
    57   2.50000  -5.00000   3.25000   0.50000   90.00000   0.00000   0.00100    56   57   58    103
    58   2.50000  -5.00000   3.75000   0.50000   90.00000   0.00000   0.00100    57   58   59    103
    59   2.50000  -5.00000   4.25000   0.50000   90.00000   0.00000   0.00100    58   59   60    103
    60   2.50000  -5.00000   4.75000   0.50000   90.00000   0.00000   0.00100    59   60    0    103
    61   7.50000  -5.00000  -4.75000   0.50000   90.00000   0.00000   0.00100     0   61   62    104
    62   7.50000  -5.00000  -4.25000   0.50000   90.00000   0.00000   0.00100    61   62   63    104
    63   7.50000  -5.00000  -3.75000   0.50000   90.00000   0.00000   0.00100    62   63   64    104
    64   7.50000  -5.00000  -3.25000   0.50000   90.00000   0.00000   0.00100    63   64   65    104
    65   7.50000  -5.00000  -2.75000   0.50000   90.00000   0.00000   0.00100    64   65   66    104
    66   7.50000  -5.00000  -2.25000   0.50000   90.00000   0.00000   0.00100    65   66   67    104
    67   7.50000  -5.00000  -1.75000   0.50000   90.00000   0.00000   0.00100    66   67   68    104
    68   7.50000  -5.00000  -1.25000   0.50000   90.00000   0.00000   0.00100    67   68   69    104
    69   7.50000  -5.00000  -0.75000   0.50000   90.00000   0.00000   0.00100    68   69   70    104
    70   7.50000  -5.00000  -0.25000   0.50000   90.00000   0.00000   0.00100    69   70   71    104
    71   7.50000  -5.00000   0.25000   0.50000   90.00000   0.00000   0.00100    70   71   72    104
    72   7.50000  -5.00000   0.75000   0.50000   90.00000   0.00000   0.00100    71   72   73    104
    73   7.50000  -5.00000   1.25000   0.50000   90.00000   0.00000   0.00100    72   73   74    104
    74   7.50000  -5.00000   1.75000   0.50000   90.00000   0.00000   0.00100    73   74   75    104
    75   7.50000  -5.00000   2.25000   0.50000   90.00000   0.00000   0.00100    74   75   76    104
    76   7.50000  -5.00000   2.75000   0.50000   90.00000   0.00000   0.00100    75   76   77    104
    77   7.50000  -5.00000   3.25000   0.50000   90.00000   0.00000   0.00100    76   77   78    104
    78   7.50000  -5.00000   3.75000   0.50000   90.00000   0.00000   0.00100    77   78   79    104
    79   7.50000  -5.00000   4.25000   0.50000   90.00000   0.00000   0.00100    78   79   80    104
    80   7.50000  -5.00000   4.75000   0.50000   90.00000   0.00000   0.00100    79   80    0    104
    81  -7.50000   0.00000  -4.75000   0.50000   90.00000   0.00000   0.00100     0   81   82    201
    82  -7.50000   0.00000  -4.25000   0.50000   90.00000   0.00000   0.00100    81   82   83    201
    83  -7.50000   0.00000  -3.75000   0.50000   90.00000   0.00000   0.00100    82   83   84    201
    84  -7.50000   0.00000  -3.25000   0.50000   90.00000   0.00000   0.00100    83   84   85    201
    85  -7.50000   0.00000  -2.75000   0.50000   90.00000   0.00000   0.00100    84   85   86    201
    86  -7.50000   0.00000  -2.25000   0.50000   90.00000   0.00000   0.00100    85   86   87    201
    87  -7.50000   0.00000  -1.75000   0.50000   90.00000   0.00000   0.00100    86   87   88    201
    88  -7.50000   0.00000  -1.25000   0.50000   90.00000   0.00000   0.00100    87   88   89    201
    89  -7.50000   0.00000  -0.75000   0.50000   90.00000   0.00000   0.00100    88   89   90    201
    90  -7.50000   0.00000  -0.25000   0.50000   90.00000   0.00000   0.00100    89   90   91    201
    91  -7.50000   0.00000   0.25000   0.50000   90.00000   0.00000   0.00100    90   91   92    201
    92  -7.50000   0.00000   0.75000   0.50000   90.00000   0.00000   0.00100    91   92   93    201
    93  -7.50000   0.00000   1.25000   0.50000   90.00000   0.00000   0.00100    92   93   94    201
    94  -7.50000   0.00000   1.75000   0.50000   90.00000   0.00000   0.00100    93   94   95    201
    95  -7.50000   0.00000   2.25000   0.50000   90.00000   0.00000   0.00100    94   95   96    201
    96  -7.50000   0.00000   2.75000   0.50000   90.00000   0.00000   0.00100    95   96   97    201
    97  -7.50000   0.00000   3.25000   0.50000   90.00000   0.00000   0.00100    96   97   98    201
    98  -7.50000   0.00000   3.75000   0.50000   90.00000   0.00000   0.00100    97   98   99    201
    99  -7.50000   0.00000   4.25000   0.50000   90.00000   0.00000   0.00100    98   99  100    201
   100  -7.50000   0.00000   4.75000   0.50000   90.00000   0.00000   0.00100    99  100    0    201
   101  -2.50000   0.00000  -4.75000   0.50000   90.00000   0.00000   0.00100     0  101  102    202
   102  -2.50000   0.00000  -4.25000   0.50000   90.00000   0.00000   0.00100   101  102  103    202
   103  -2.50000   0.00000  -3.75000   0.50000   90.00000   0.00000   0.00100   102  103  104    202
   104  -2.50000   0.00000  -3.25000   0.50000   90.00000   0.00000   0.00100   103  104  105    202
   105  -2.50000   0.00000  -2.75000   0.50000   90.00000   0.00000   0.00100   104  105  106    202
   106  -2.50000   0.00000  -2.25000   0.50000   90.00000   0.00000   0.00100   105  106  107    202
   107  -2.50000   0.00000  -1.75000   0.50000   90.00000   0.00000   0.00100   106  107  108    202
   108  -2.50000   0.00000  -1.25000   0.50000   90.00000   0.00000   0.00100   107  108  109    202
   109  -2.50000   0.00000  -0.75000   0.50000   90.00000   0.00000   0.00100   108  109  110    202
   110  -2.50000   0.00000  -0.25000   0.50000   90.00000   0.00000   0.00100   109  110  111    202
   111  -2.50000   0.00000   0.25000   0.50000   90.00000   0.00000   0.00100   110  111  112    202
   112  -2.50000   0.00000   0.75000   0.50000   90.00000   0.00000   0.00100   111  112  113    202
   113  -2.50000   0.00000   1.25000   0.50000   90.00000   0.00000   0.00100   112  113  114    202
   114  -2.50000   0.00000   1.75000   0.50000   90.00000   0.00000   0.00100   113  114  115    202
   115  -2.50000   0.00000   2.25000   0.50000   90.00000   0.00000   0.00100   114  115  116    202
   116  -2.50000   0.00000   2.75000   0.50000   90.00000   0.00000   0.00100   115  116  117    202
   117  -2.50000   0.00000   3.25000   0.50000   90.00000   0.00000   0.00100   116  117  118    202
   118  -2.50000   0.00000   3.75000   0.50000   90.00000   0.00000   0.00100   117  118  119    202
   119  -2.50000   0.00000   4.25000   0.50000   90.00000   0.00000   0.00100   118  119  120    202
   120  -2.50000   0.00000   4.75000   0.50000   90.00000   0.00000   0.00100   119  120    0    202
   121   2.50000   0.00000  -4.75000   0.50000   90.00000   0.00000   0.00100     0  121  122    203
   122   2.50000   0.00000  -4.25000   0.50000   90.00000   0.00000   0.00100   121  122  123    203
   123   2.50000   0.00000  -3.75000   0.50000   90.00000   0.00000   0.00100   122  123  124    203
   124   2.50000   0.00000  -3.25000   0.50000   90.00000   0.00000   0.00100   123  124  125    203
   125   2.50000   0.00000  -2.75000   0.50000   90.00000   0.00000   0.00100   124  125  126    203
   126   2.50000   0.00000  -2.25000   0.50000   90.00000   0.00000   0.00100   125  126  127    203
   127   2.50000   0.00000  -1.75000   0.50000   90.00000   0.00000   0.00100   126  127  128    203
   128   2.50000   0.00000  -1.25000   0.50000   90.00000   0.00000   0.00100   127  128  129    203
   129   2.50000   0.00000  -0.75000   0.50000   90.00000   0.00000   0.00100   128  129  130    203
   130   2.50000   0.00000  -0.25000   0.50000   90.00000   0.00000   0.00100   129  130  131    203
   131   2.50000   0.00000   0.25000   0.50000   90.00000   0.00000   0.00100   130  131  132    203
   132   2.50000   0.00000   0.75000   0.50000   90.00000   0.00000   0.00100   131  132  133    203
   133   2.50000   0.00000   1.25000   0.50000   90.00000   0.00000   0.00100   132  133  134    203
   134   2.50000   0.00000   1.75000   0.50000   90.00000   0.00000   0.00100   133  134  135    203
   135   2.50000   0.00000   2.25000   0.50000   90.00000   0.00000   0.00100   134  135  136    203
   136   2.50000   0.00000   2.75000   0.50000   90.00000   0.00000   0.00100   135  136  137    203
   137   2.50000   0.00000   3.25000   0.50000   90.00000   0.00000   0.00100   136  137  138    203
   138   2.50000   0.00000   3.75000   0.50000   90.00000   0.00000   0.00100   137  138  139    203
   139   2.50000   0.00000   4.25000   0.50000   90.00000   0.00000   0.00100   138  139  140    203
   140   2.50000   0.00000   4.75000   0.50000   90.00000   0.00000   0.00100   139  140    0    203
   141   7.50000   0.00000  -4.75000   0.50000   90.00000   0.00000   0.00100     0  141  142    204
   142   7.50000   0.00000  -4.25000   0.50000   90.00000   0.00000   0.00100   141  142  143    204
   143   7.50000   0.00000  -3.75000   0.50000   90.00000   0.00000   0.00100   142  143  144    204
   144   7.50000   0.00000  -3.25000   0.50000   90.00000   0.00000   0.00100   143  144  145    204
   145   7.50000   0.00000  -2.75000   0.50000   90.00000   0.00000   0.00100   144  145  146    204
   146   7.50000   0.00000  -2.25000   0.50000   90.00000   0.00000   0.00100   145  146  147    204
   147   7.50000   0.00000  -1.75000   0.50000   90.00000   0.00000   0.00100   146  147  148    204
   148   7.50000   0.00000  -1.25000   0.50000   90.00000   0.00000   0.00100   147  148  149    204
   149   7.50000   0.00000  -0.75000   0.50000   90.00000   0.00000   0.00100   148  149  150    204
   150   7.50000   0.00000  -0.25000   0.50000   90.00000   0.00000   0.00100   149  150  151    204
   151   7.50000   0.00000   0.25000   0.50000   90.00000   0.00000   0.00100   150  151  152    204
   152   7.50000   0.00000   0.75000   0.50000   90.00000   0.00000   0.00100   151  152  153    204
   153   7.50000   0.00000   1.25000   0.50000   90.00000   0.00000   0.00100   152  153  154    204
   154   7.50000   0.00000   1.75000   0.50000   90.00000   0.00000   0.00100   153  154  155    204
   155   7.50000   0.00000   2.25000   0.50000   90.00000   0.00000   0.00100   154  155  156    204
   156   7.50000   0.00000   2.75000   0.50000   90.00000   0.00000   0.00100   155  156  157    204
   157   7.50000   0.00000   3.25000   0.50000   90.00000   0.00000   0.00100   156  157  158    204
   158   7.50000   0.00000   3.75000   0.50000   90.00000   0.00000   0.00100   157  158  159    204
   159   7.50000   0.00000   4.25000   0.50000   90.00000   0.00000   0.00100   158  159  160    204
   160   7.50000   0.00000   4.75000   0.50000   90.00000   0.00000   0.00100   159  160    0    204
   161  -7.50000   5.00000  -4.75000   0.50000   90.00000   0.00000   0.00100     0  161  162    301
   162  -7.50000   5.00000  -4.25000   0.50000   90.00000   0.00000   0.00100   161  162  163    301
   163  -7.50000   5.00000  -3.75000   0.50000   90.00000   0.00000   0.00100   162  163  164    301
   164  -7.50000   5.00000  -3.25000   0.50000   90.00000   0.00000   0.00100   163  164  165    301
   165  -7.50000   5.00000  -2.75000   0.50000   90.00000   0.00000   0.00100   164  165  166    301
   166  -7.50000   5.00000  -2.25000   0.50000   90.00000   0.00000   0.00100   165  166  167    301
   167  -7.50000   5.00000  -1.75000   0.50000   90.00000   0.00000   0.00100   166  167  168    301
   168  -7.50000   5.00000  -1.25000   0.50000   90.00000   0.00000   0.00100   167  168  169    301
   169  -7.50000   5.00000  -0.75000   0.50000   90.00000   0.00000   0.00100   168  169  170    301
   170  -7.50000   5.00000  -0.25000   0.50000   90.00000   0.00000   0.00100   169  170  171    301
   171  -7.50000   5.00000   0.25000   0.50000   90.00000   0.00000   0.00100   170  171  172    301
   172  -7.50000   5.00000   0.75000   0.50000   90.00000   0.00000   0.00100   171  172  173    301
   173  -7.50000   5.00000   1.25000   0.50000   90.00000   0.00000   0.00100   172  173  174    301
   174  -7.50000   5.00000   1.75000   0.50000   90.00000   0.00000   0.00100   173  174  175    301
   175  -7.50000   5.00000   2.25000   0.50000   90.00000   0.00000   0.00100   174  175  176    301
   176  -7.50000   5.00000   2.75000   0.50000   90.00000   0.00000   0.00100   175  176  177    301
   177  -7.50000   5.00000   3.25000   0.50000   90.00000   0.00000   0.00100   176  177  178    301
   178  -7.50000   5.00000   3.75000   0.50000   90.00000   0.00000   0.00100   177  178  179    301
   179  -7.50000   5.00000   4.25000   0.50000   90.00000   0.00000   0.00100   178  179  180    301
   180  -7.50000   5.00000   4.75000   0.50000   90.00000   0.00000   0.00100   179  180    0    301
   181  -2.50000   5.00000  -4.75000   0.50000   90.00000   0.00000   0.00100     0  181  182    302
   182  -2.50000   5.00000  -4.25000   0.50000   90.00000   0.00000   0.00100   181  182  183    302
   183  -2.50000   5.00000  -3.75000   0.50000   90.00000   0.00000   0.00100   182  183  184    302
   184  -2.50000   5.00000  -3.25000   0.50000   90.00000   0.00000   0.00100   183  184  185    302
   185  -2.50000   5.00000  -2.75000   0.50000   90.00000   0.00000   0.00100   184  185  186    302
   186  -2.50000   5.00000  -2.25000   0.50000   90.00000   0.00000   0.00100   185  186  187    302
   187  -2.50000   5.00000  -1.75000   0.50000   90.00000   0.00000   0.00100   186  187  188    302
   188  -2.50000   5.00000  -1.25000   0.50000   90.00000   0.00000   0.00100   187  188  189    302
   189  -2.50000   5.00000  -0.75000   0.50000   90.00000   0.00000   0.00100   188  189  190    302
   190  -2.50000   5.00000  -0.25000   0.50000   90.00000   0.00000   0.00100   189  190  191    302
   191  -2.50000   5.00000   0.25000   0.50000   90.00000   0.00000   0.00100   190  191  192    302
   192  -2.50000   5.00000   0.75000   0.50000   90.00000   0.00000   0.00100   191  192  193    302
   193  -2.50000   5.00000   1.25000   0.50000   90.00000   0.00000   0.00100   192  193  194    302
   194  -2.50000   5.00000   1.75000   0.50000   90.00000   0.00000   0.00100   193  194  195    302
   195  -2.50000   5.00000   2.25000   0.50000   90.00000   0.00000   0.00100   194  195  196    302
   196  -2.50000   5.00000   2.75000   0.50000   90.00000   0.00000   0.00100   195  196  197    302
   197  -2.50000   5.00000   3.25000   0.50000   90.00000   0.00000   0.00100   196  197  198    302
   198  -2.50000   5.00000   3.75000   0.50000   90.00000   0.00000   0.00100   197  198  199    302
   199  -2.50000   5.00000   4.25000   0.50000   90.00000   0.00000   0.00100   198  199  200    302
   200  -2.50000   5.00000   4.75000   0.50000   90.00000   0.00000   0.00100   199  200    0    302
   201   2.50000   5.00000  -4.75000   0.50000   90.00000   0.00000   0.00100     0  201  202    303
   202   2.50000   5.00000  -4.25000   0.50000   90.00000   0.00000   0.00100   201  202  203    303
   203   2.50000   5.00000  -3.75000   0.50000   90.00000   0.00000   0.00100   202  203  204    303
   204   2.50000   5.00000  -3.25000   0.50000   90.00000   0.00000   0.00100   203  204  205    303
   205   2.50000   5.00000  -2.75000   0.50000   90.00000   0.00000   0.00100   204  205  206    303
   206   2.50000   5.00000  -2.25000   0.50000   90.00000   0.00000   0.00100   205  206  207    303
   207   2.50000   5.00000  -1.75000   0.50000   90.00000   0.00000   0.00100   206  207  208    303
   208   2.50000   5.00000  -1.25000   0.50000   90.00000   0.00000   0.00100   207  208  209    303
   209   2.50000   5.00000  -0.75000   0.50000   90.00000   0.00000   0.00100   208  209  210    303
   210   2.50000   5.00000  -0.25000   0.50000   90.00000   0.00000   0.00100   209  210  211    303
   211   2.50000   5.00000   0.25000   0.50000   90.00000   0.00000   0.00100   210  211  212    303
   212   2.50000   5.00000   0.75000   0.50000   90.00000   0.00000   0.00100   211  212  213    303
   213   2.50000   5.00000   1.25000   0.50000   90.00000   0.00000   0.00100   212  213  214    303
   214   2.50000   5.00000   1.75000   0.50000   90.00000   0.00000   0.00100   213  214  215    303
   215   2.50000   5.00000   2.25000   0.50000   90.00000   0.00000   0.00100   214  215  216    303
   216   2.50000   5.00000   2.75000   0.50000   90.00000   0.00000   0.00100   215  216  217    303
   217   2.50000   5.00000   3.25000   0.50000   90.00000   0.00000   0.00100   216  217  218    303
   218   2.50000   5.00000   3.75000   0.50000   90.00000   0.00000   0.00100   217  218  219    303
   219   2.50000   5.00000   4.25000   0.50000   90.00000   0.00000   0.00100   218  219  220    303
   220   2.50000   5.00000   4.75000   0.50000   90.00000   0.00000   0.00100   219  220    0    303
   221   7.50000   5.00000  -4.75000   0.50000   90.00000   0.00000   0.00100     0  221  222    304
   222   7.50000   5.00000  -4.25000   0.50000   90.00000   0.00000   0.00100   221  222  223    304
   223   7.50000   5.00000  -3.75000   0.50000   90.00000   0.00000   0.00100   222  223  224    304
   224   7.50000   5.00000  -3.25000   0.50000   90.00000   0.00000   0.00100   223  224  225    304
   225   7.50000   5.00000  -2.75000   0.50000   90.00000   0.00000   0.00100   224  225  226    304
   226   7.50000   5.00000  -2.25000   0.50000   90.00000   0.00000   0.00100   225  226  227    304
   227   7.50000   5.00000  -1.75000   0.50000   90.00000   0.00000   0.00100   226  227  228    304
   228   7.50000   5.00000  -1.25000   0.50000   90.00000   0.00000   0.00100   227  228  229    304
   229   7.50000   5.00000  -0.75000   0.50000   90.00000   0.00000   0.00100   228  229  230    304
   230   7.50000   5.00000  -0.25000   0.50000   90.00000   0.00000   0.00100   229  230  231    304
   231   7.50000   5.00000   0.25000   0.50000   90.00000   0.00000   0.00100   230  231  232    304
   232   7.50000   5.00000   0.75000   0.50000   90.00000   0.00000   0.00100   231  232  233    304
   233   7.50000   5.00000   1.25000   0.50000   90.00000   0.00000   0.00100   232  233  234    304
   234   7.50000   5.00000   1.75000   0.50000   90.00000   0.00000   0.00100   233  234  235    304
   235   7.50000   5.00000   2.25000   0.50000   90.00000   0.00000   0.00100   234  235  236    304
   236   7.50000   5.00000   2.75000   0.50000   90.00000   0.00000   0.00100   235  236  237    304
   237   7.50000   5.00000   3.25000   0.50000   90.00000   0.00000   0.00100   236  237  238    304
   238   7.50000   5.00000   3.75000   0.50000   90.00000   0.00000   0.00100   237  238  239    304
   239   7.50000   5.00000   4.25000   0.50000   90.00000   0.00000   0.00100   238  239  240    304
   240   7.50000   5.00000   4.75000   0.50000   90.00000   0.00000   0.00100   239  240    0    304






 ***** DATA CARD NO.  1   GN  -1     0     0     0  1.00000E+01  1.00000E-02  0.00000E+00  0.00000E+00  0.00000E+00  0.00000E+00
 ***** DATA CARD NO.  2   FR   0     0     0     0  1.50000E+02  0.00000E+00  0.00000E+00  0.00000E+00  0.00000E+00  0.00000E+00
 ***** DATA CARD NO.  3   EX   0   101    10     0 -2.67920E+01 -1.06680E+02  0.00000E+00  0.00000E+00  0.00000E+00  0.00000E+00
 ***** DATA CARD NO.  4   EX   0   102    10     0 -2.16320E+01  1.10280E+02  0.00000E+00  0.00000E+00  0.00000E+00  0.00000E+00
 ***** DATA CARD NO.  5   EX   0   103    10     0  6.41390E+01 -9.40910E+01  0.00000E+00  0.00000E+00  0.00000E+00  0.00000E+00
 ***** DATA CARD NO.  6   EX   0   104    10     0 -9.34270E+01  6.31630E+01  0.00000E+00  0.00000E+00  0.00000E+00  0.00000E+00
 ***** DATA CARD NO.  7   EX   0   201    10     0 -2.36110E+01 -1.05760E+02  0.00000E+00  0.00000E+00  0.00000E+00  0.00000E+00
 ***** DATA CARD NO.  8   EX   0   202    10     0 -2.82360E+01  1.10000E+02  0.00000E+00  0.00000E+00  0.00000E+00  0.00000E+00
 ***** DATA CARD NO.  9   EX   0   203    10     0  6.99980E+01 -9.17930E+01  0.00000E+00  0.00000E+00  0.00000E+00  0.00000E+00
 ***** DATA CARD NO. 10   EX   0   204    10     0 -9.56570E+01  6.19800E+01  0.00000E+00  0.00000E+00  0.00000E+00  0.00000E+00
 ***** DATA CARD NO. 11   EX   0   301    10     0 -2.67920E+01 -1.06680E+02  0.00000E+00  0.00000E+00  0.00000E+00  0.00000E+00
 ***** DATA CARD NO. 12   EX   0   302    10     0 -2.16320E+01  1.10280E+02  0.00000E+00  0.00000E+00  0.00000E+00  0.00000E+00
 ***** DATA CARD NO. 13   EX   0   303    10     0  6.41390E+01 -9.40910E+01  0.00000E+00  0.00000E+00  0.00000E+00  0.00000E+00
 ***** DATA CARD NO. 14   EX   0   304    10     0 -9.34270E+01  6.31630E+01  0.00000E+00  0.00000E+00  0.00000E+00  0.00000E+00
 ***** DATA CARD NO. 15   RP   0    19    72  1010  0.00000E+00  0.00000E+00  5.00000E+00  5.00000E+00  0.00000E+00  0.00000E+00




                                 - - - - - - FREQUENCY - - - - - -

                                    FREQUENCY= 1.5000E+02 MHZ
                                    WAVELENGTH= 1.9987E+00 METERS




                    APPROXIMATE INTEGRATION EMPLOYED FOR SEGMENTS MORE THAN   1.000 WAVELENGTHS APART



                               - - - STRUCTURE IMPEDANCE LOADING - - -

                                   THIS STRUCTURE IS NOT LOADED



                                  - - - ANTENNA ENVIRONMENT - - -

                                            FREE SPACE



                                - - - MATRIX TIMING - - -

                        FILL=    0.016 SEC.,  FACTOR=    0.016 SEC.



                                          - - - ANTENNA INPUT PARAMETERS - - -

   TAG   SEG.    VOLTAGE (VOLTS)         CURRENT (AMPS)         IMPEDANCE (OHMS)        ADMITTANCE (MHOS)      POWER
   NO.   NO.    REAL        IMAG.       REAL        IMAG.       REAL        IMAG.       REAL        IMAG.     (WATTS)
   101    10-2.67920E+01-1.06680E+02-2.32903E-01-2.69597E-01 2.75755E+02 1.38844E+02 2.89298E-03-1.45664E-03 1.75003E+01
   102    30-2.16320E+01 1.10280E+02 9.80674E-02 3.47145E-01 2.77896E+02 1.40819E+02 2.86325E-03-1.45090E-03 1.80809E+01
   103    50 6.41390E+01-9.40910E+01 4.75135E-02-3.58275E-01 2.81414E+02 1.41701E+02 2.83474E-03-1.42738E-03 1.83790E+01
   104    70-9.34270E+01 6.31630E+01-1.85455E-01 3.06446E-01 2.85906E+02 1.31848E+02 2.88426E-03-1.33010E-03 1.83413E+01
   201    90-2.36110E+01-1.05760E+02-2.27432E-01-2.62634E-01 2.74611E+02 1.47903E+02 2.82271E-03-1.52028E-03 1.65730E+01
   202   110-2.82360E+01 1.10000E+02 9.18354E-02 3.39048E-01 2.81246E+02 1.59459E+02 2.69067E-03-1.52554E-03 1.73511E+01
   203   130 6.99980E+01-9.17930E+01 4.10050E-02-3.48875E-01 2.82787E+02 1.67402E+02 2.61860E-03-1.55014E-03 1.74473E+01
   204   150-9.56570E+01 6.19800E+01-1.77844E-01 3.01267E-01 2.91563E+02 1.45400E+02 2.74670E-03-1.36975E-03 1.78423E+01
   301   170-2.67920E+01-1.06680E+02-2.32903E-01-2.69597E-01 2.75755E+02 1.38844E+02 2.89298E-03-1.45664E-03 1.75003E+01
   302   190-2.16320E+01 1.10280E+02 9.80674E-02 3.47145E-01 2.77896E+02 1.40819E+02 2.86325E-03-1.45090E-03 1.80809E+01
   303   210 6.41390E+01-9.40910E+01 4.75135E-02-3.58275E-01 2.81414E+02 1.41701E+02 2.83474E-03-1.42738E-03 1.83790E+01
   304   230-9.34270E+01 6.31630E+01-1.85455E-01 3.06446E-01 2.85906E+02 1.31848E+02 2.88426E-03-1.33010E-03 1.83413E+01



                             - - - CURRENTS AND LOCATION - - -

                                 DISTANCES IN WAVELENGTHS


  SEG.  TAG    COORD. OF SEG. CENTER     SEG.            - - - CURRENT (AMPS) - - -
  NO.   NO.     X        Y        Z      LENGTH     REAL        IMAG.       MAG.        PHASE
     1  101  -3.7525  -2.5017  -2.3766  0.25017  -2.7830E-01 -2.3930E-01  3.6704E-01 -139.309
     2  101  -3.7525  -2.5017  -2.1264  0.25017  -2.1393E-01 -2.3654E-01  3.1894E-01 -132.127
     3  101  -3.7525  -2.5017  -1.8763  0.25017   2.9441E-01  2.2705E-01  3.7179E-01   37.639
     4  101  -3.7525  -2.5017  -1.6261  0.25017   2.0324E-01  2.4201E-01  3.1603E-01   49.976
     5  101  -3.7525  -2.5017  -1.3759  0.25017  -2.9293E-01 -2.1827E-01  3.6531E-01 -143.309
     6  101  -3.7525  -2.5017  -1.1258  0.25017  -1.8347E-01 -2.4574E-01  3.0667E-01 -126.745
     7  101  -3.7525  -2.5017  -0.8756  0.25017   3.1365E-01  2.1249E-01  3.7885E-01   34.116
     8  101  -3.7525  -2.5017  -0.6254  0.25017   1.9011E-01  2.4689E-01  3.1160E-01   52.402
     9  101  -3.7525  -2.5017  -0.3753  0.25017  -3.1439E-01 -2.2141E-01  3.8453E-01 -144.845
    10  101  -3.7525  -2.5017  -0.1251  0.25017  -2.3290E-01 -2.6960E-01  3.5627E-01 -130.823
    11  101  -3.7525  -2.5017   0.1251  0.25017   5.5868E-02  2.4560E-01  2.5187E-01   77.185
    12  101  -3.7525  -2.5017   0.3753  0.25017   1.7754E-01  2.6415E-01  3.1827E-01   56.094
    13  101  -3.7525  -2.5017   0.6254  0.25017  -6.5785E-02 -2.3629E-01  2.4528E-01 -105.557
    14  101  -3.7525  -2.5017   0.8756  0.25017  -1.7448E-01 -2.5109E-01  3.0576E-01 -124.795
    15  101  -3.7525  -2.5017   1.1258  0.25017   7.2904E-02  2.3953E-01  2.5038E-01   73.072
    16  101  -3.7525  -2.5017   1.3759  0.25017   1.6993E-01  2.4679E-01  2.9964E-01   55.450
    17  101  -3.7525  -2.5017   1.6261  0.25017  -8.1259E-02 -2.5039E-01  2.6324E-01 -107.980
    18  101  -3.7525  -2.5017   1.8763  0.25017  -1.6584E-01 -2.6307E-01  3.1098E-01 -122.227
    19  101  -3.7525  -2.5017   2.1264  0.25017   8.9320E-02  2.4019E-01  2.5626E-01   69.601
    20  101  -3.7525  -2.5017   2.3766  0.25017   1.4379E-01  2.6146E-01  2.9839E-01   61.191
    21  102  -1.2508  -2.5017  -2.3766  0.25017   1.5441E-01  3.3989E-01  3.7332E-01   65.568
    22  102  -1.2508  -2.5017  -2.1264  0.25017   9.0325E-02  3.0424E-01  3.1736E-01   73.464
    23  102  -1.2508  -2.5017  -1.8763  0.25017  -1.8183E-01 -3.4343E-01  3.8860E-01 -117.899
    24  102  -1.2508  -2.5017  -1.6261  0.25017  -8.4482E-02 -3.1053E-01  3.2181E-01 -105.219
    25  102  -1.2508  -2.5017  -1.3759  0.25017   1.7844E-01  3.3442E-01  3.7905E-01   61.917
    26  102  -1.2508  -2.5017  -1.1258  0.25017   5.9263E-02  3.1172E-01  3.1731E-01   79.236
    27  102  -1.2508  -2.5017  -0.8756  0.25017  -2.0377E-01 -3.2808E-01  3.8621E-01 -121.844
    28  102  -1.2508  -2.5017  -0.6254  0.25017  -6.4844E-02 -3.0659E-01  3.1337E-01 -101.942
    29  102  -1.2508  -2.5017  -0.3753  0.25017   2.0446E-01  3.4181E-01  3.9829E-01   59.114
    30  102  -1.2508  -2.5017  -0.1251  0.25017   9.8067E-02  3.4715E-01  3.6073E-01   74.225
    31  102  -1.2508  -2.5017   0.1251  0.25017   4.2315E-02 -2.5336E-01  2.5686E-01  -80.518
    32  102  -1.2508  -2.5017   0.3753  0.25017  -6.0403E-02 -3.2026E-01  3.2590E-01 -100.681
    33  102  -1.2508  -2.5017   0.6254  0.25017  -4.4334E-02  2.4730E-01  2.5124E-01  100.164
    34  102  -1.2508  -2.5017   0.8756  0.25017   5.0983E-02  3.0563E-01  3.0985E-01   80.530
    35  102  -1.2508  -2.5017   1.1258  0.25017   3.4213E-02 -2.5372E-01  2.5602E-01  -82.320
    36  102  -1.2508  -2.5017   1.3759  0.25017  -4.6079E-02 -2.9774E-01  3.0129E-01  -98.798
    37  102  -1.2508  -2.5017   1.6261  0.25017  -2.2786E-02  2.7237E-01  2.7332E-01   94.782
    38  102  -1.2508  -2.5017   1.8763  0.25017   4.7301E-02  3.1696E-01  3.2047E-01   81.512
    39  102  -1.2508  -2.5017   2.1264  0.25017   2.3096E-02 -2.6319E-01  2.6420E-01  -84.985
    40  102  -1.2508  -2.5017   2.3766  0.25017  -1.9786E-02 -3.0616E-01  3.0680E-01  -93.698
    41  103   1.2508  -2.5017  -2.3766  0.25017  -8.9953E-03 -3.7317E-01  3.7328E-01  -91.381
    42  103   1.2508  -2.5017  -2.1264  0.25017   3.7008E-02 -3.1447E-01  3.1664E-01  -83.288
    43  103   1.2508  -2.5017  -1.8763  0.25017   3.4334E-02  3.8788E-01  3.8939E-01   84.941
    44  103   1.2508  -2.5017  -1.6261  0.25017  -4.2709E-02  3.1817E-01  3.2102E-01   97.645
    45  103   1.2508  -2.5017  -1.3759  0.25017  -3.1645E-02 -3.7850E-01  3.7982E-01  -94.779
    46  103   1.2508  -2.5017  -1.1258  0.25017   7.0428E-02 -3.0999E-01  3.1789E-01  -77.200
    47  103   1.2508  -2.5017  -0.8756  0.25017   6.2219E-02  3.8157E-01  3.8661E-01   80.739
    48  103   1.2508  -2.5017  -0.6254  0.25017  -5.8068E-02  3.0591E-01  3.1137E-01  100.748
    49  103   1.2508  -2.5017  -0.3753  0.25017  -5.2233E-02 -3.9636E-01  3.9979E-01  -97.507
    50  103   1.2508  -2.5017  -0.1251  0.25017   4.7514E-02 -3.5827E-01  3.6141E-01  -82.446
    51  103   1.2508  -2.5017   0.1251  0.25017  -1.3978E-01  2.1529E-01  2.5668E-01  122.994
    52  103   1.2508  -2.5017   0.3753  0.25017  -7.1115E-02  3.1925E-01  3.2708E-01  102.558
    53  103   1.2508  -2.5017   0.6254  0.25017   1.3862E-01 -2.0711E-01  2.4922E-01  -56.206
    54  103   1.2508  -2.5017   0.8756  0.25017   7.2901E-02 -3.0059E-01  3.0931E-01  -76.368
    55  103   1.2508  -2.5017   1.1258  0.25017  -1.3259E-01  2.1700E-01  2.5430E-01  121.425
    56  103   1.2508  -2.5017   1.3759  0.25017  -7.4629E-02  2.8949E-01  2.9896E-01  104.456
    57  103   1.2508  -2.5017   1.6261  0.25017   1.2907E-01 -2.4206E-01  2.7432E-01  -61.933
    58  103   1.2508  -2.5017   1.8763  0.25017   8.0277E-02 -3.1185E-01  3.2201E-01  -75.564
    59  103   1.2508  -2.5017   2.1264  0.25017  -1.2709E-01  2.2918E-01  2.6206E-01  119.010
    60  103   1.2508  -2.5017   2.3766  0.25017  -1.0313E-01  2.8738E-01  3.0533E-01  109.742
    61  104   3.7525  -2.5017  -2.3766  0.25017  -1.4096E-01  3.3862E-01  3.6679E-01  112.601
    62  104   3.7525  -2.5017  -2.1264  0.25017  -1.6627E-01  2.7151E-01  3.1838E-01  121.483
    63  104   3.7525  -2.5017  -1.8763  0.25017   1.1574E-01 -3.5811E-01  3.7635E-01  -72.090
    64  104   3.7525  -2.5017  -1.6261  0.25017   1.6961E-01 -2.6853E-01  3.1761E-01  -57.723
    65  104   3.7525  -2.5017  -1.3759  0.25017  -1.1010E-01  3.5558E-01  3.7223E-01  107.204
    66  104   3.7525  -2.5017  -1.1258  0.25017  -1.8006E-01  2.6103E-01  3.1711E-01  124.599
    67  104   3.7525  -2.5017  -0.8756  0.25017   9.7943E-02 -3.5809E-01  3.7125E-01  -74.703
    68  104   3.7525  -2.5017  -0.6254  0.25017   1.7994E-01 -2.5267E-01  3.1019E-01  -54.543
    69  104   3.7525  -2.5017  -0.3753  0.25017  -1.0424E-01  3.7235E-01  3.8667E-01  105.639
    70  104   3.7525  -2.5017  -0.1251  0.25017  -1.8545E-01  3.0645E-01  3.5819E-01  121.181
    71  104   3.7525  -2.5017   0.1251  0.25017   2.1533E-01 -1.3108E-01  2.5209E-01  -31.329
    72  104   3.7525  -2.5017   0.3753  0.25017   1.9143E-01 -2.5255E-01  3.1691E-01  -52.838
    73  104   3.7525  -2.5017   0.6254  0.25017  -2.1348E-01  1.3436E-01  2.5224E-01  147.814
    74  104   3.7525  -2.5017   0.8756  0.25017  -1.8847E-01  2.4027E-01  3.0537E-01  128.111
    75  104   3.7525  -2.5017   1.1258  0.25017   2.0979E-01 -1.4712E-01  2.5623E-01  -35.041
    76  104   3.7525  -2.5017   1.3759  0.25017   1.8604E-01 -2.3592E-01  3.0044E-01  -51.742
    77  104   3.7525  -2.5017   1.6261  0.25017  -2.1204E-01  1.6237E-01  2.6707E-01  142.556
    78  104   3.7525  -2.5017   1.8763  0.25017  -1.9206E-01  2.4424E-01  3.1071E-01  128.180
    79  104   3.7525  -2.5017   2.1264  0.25017   2.1389E-01 -1.6048E-01  2.6740E-01  -36.880
    80  104   3.7525  -2.5017   2.3766  0.25017   2.1058E-01 -2.1958E-01  3.0424E-01  -46.199
    81  201  -3.7525   0.0000  -2.3766  0.25017  -2.7461E-01 -2.3055E-01  3.5856E-01 -139.984
    82  201  -3.7525   0.0000  -2.1264  0.25017  -2.1637E-01 -2.3051E-01  3.1615E-01 -133.187
    83  201  -3.7525   0.0000  -1.8763  0.25017   2.8152E-01  2.1197E-01  3.5240E-01   36.977
    84  201  -3.7525   0.0000  -1.6261  0.25017   1.9966E-01  2.2641E-01  3.0187E-01   48.592
    85  201  -3.7525   0.0000  -1.3759  0.25017  -2.8131E-01 -2.0906E-01  3.5049E-01 -143.381
    86  201  -3.7525   0.0000  -1.1258  0.25017  -1.8048E-01 -2.2657E-01  2.8967E-01 -128.541
    87  201  -3.7525   0.0000  -0.8756  0.25017   2.9721E-01  2.1347E-01  3.6593E-01   35.688
    88  201  -3.7525   0.0000  -0.6254  0.25017   1.7790E-01  2.3625E-01  2.9575E-01   53.019
    89  201  -3.7525   0.0000  -0.3753  0.25017  -3.0775E-01 -2.2036E-01  3.7851E-01 -144.396
    90  201  -3.7525   0.0000  -0.1251  0.25017  -2.2743E-01 -2.6263E-01  3.4742E-01 -130.891
    91  201  -3.7525   0.0000   0.1251  0.25017   4.7547E-02  2.3512E-01  2.3988E-01   78.568
    92  201  -3.7525   0.0000   0.3753  0.25017   1.7120E-01  2.5658E-01  3.0845E-01   56.287
    93  201  -3.7525   0.0000   0.6254  0.25017  -5.6431E-02 -2.2528E-01  2.3224E-01 -104.063
    94  201  -3.7525   0.0000   0.8756  0.25017  -1.6615E-01 -2.4686E-01  2.9756E-01 -123.943
    95  201  -3.7525   0.0000   1.1258  0.25017   6.3692E-02  2.2201E-01  2.3097E-01   73.992
    96  201  -3.7525   0.0000   1.3759  0.25017   1.5844E-01  2.3920E-01  2.8692E-01   56.481
    97  201  -3.7525   0.0000   1.6261  0.25017  -7.5639E-02 -2.2699E-01  2.3926E-01 -108.429
    98  201  -3.7525   0.0000   1.8763  0.25017  -1.5329E-01 -2.4232E-01  2.8673E-01 -122.317
    99  201  -3.7525   0.0000   2.1264  0.25017   9.0688E-02  2.2863E-01  2.4596E-01   68.363
   100  201  -3.7525   0.0000   2.3766  0.25017   1.4001E-01  2.4649E-01  2.8348E-01   60.403
   101  202  -1.2508   0.0000  -2.3766  0.25017   1.5378E-01  3.3052E-01  3.6454E-01   65.050
   102  202  -1.2508   0.0000  -2.1264  0.25017   9.4692E-02  2.9626E-01  3.1103E-01   72.275
   103  202  -1.2508   0.0000  -1.8763  0.25017  -1.7204E-01 -3.2711E-01  3.6959E-01 -117.742
   104  202  -1.2508   0.0000  -1.6261  0.25017  -8.3910E-02 -2.8972E-01  3.0162E-01 -106.153
   105  202  -1.2508   0.0000  -1.3759  0.25017   1.6777E-01  3.2812E-01  3.6852E-01   62.918
   106  202  -1.2508   0.0000  -1.1258  0.25017   5.8688E-02  2.9134E-01  2.9719E-01   78.610
   107  202  -1.2508   0.0000  -0.8756  0.25017  -1.8562E-01 -3.2773E-01  3.7664E-01 -119.527
   108  202  -1.2508   0.0000  -0.6254  0.25017  -5.0233E-02 -2.8975E-01  2.9407E-01  -99.835
   109  202  -1.2508   0.0000  -0.3753  0.25017   2.0026E-01  3.4441E-01  3.9839E-01   59.824
   110  202  -1.2508   0.0000  -0.1251  0.25017   9.1835E-02  3.3905E-01  3.5127E-01   74.844
   111  202  -1.2508   0.0000   0.1251  0.25017   4.8033E-02 -2.3656E-01  2.4138E-01  -78.522
   112  202  -1.2508   0.0000   0.3753  0.25017  -5.6951E-02 -3.0993E-01  3.1512E-01 -100.412
   113  202  -1.2508   0.0000   0.6254  0.25017  -5.6121E-02  2.2954E-01  2.3630E-01  103.739
   114  202  -1.2508   0.0000   0.8756  0.25017   4.0647E-02  2.9859E-01  3.0134E-01   82.248
   115  202  -1.2508   0.0000   1.1258  0.25017   4.3131E-02 -2.2855E-01  2.3258E-01  -79.313
   116  202  -1.2508   0.0000   1.3759  0.25017  -3.1000E-02 -2.8622E-01  2.8790E-01  -96.181
   117  202  -1.2508   0.0000   1.6261  0.25017  -2.2200E-02  2.4067E-01  2.4170E-01   95.270
   118  202  -1.2508   0.0000   1.8763  0.25017   3.8222E-02  2.8894E-01  2.9146E-01   82.464
   119  202  -1.2508   0.0000   2.1264  0.25017   1.9848E-02 -2.4752E-01  2.4832E-01  -85.415
   120  202  -1.2508   0.0000   2.3766  0.25017  -1.8390E-02 -2.8635E-01  2.8694E-01  -93.675
   121  203   1.2508   0.0000  -2.3766  0.25017  -2.2916E-02 -3.6509E-01  3.6581E-01  -93.592
   122  203   1.2508   0.0000  -2.1264  0.25017   1.7650E-02 -3.0929E-01  3.0979E-01  -86.734
   123  203   1.2508   0.0000  -1.8763  0.25017   3.7781E-02  3.7118E-01  3.7310E-01   84.188
   124  203   1.2508   0.0000  -1.6261  0.25017  -2.7920E-02  3.0127E-01  3.0256E-01   95.295
   125  203   1.2508   0.0000  -1.3759  0.25017  -3.3311E-02 -3.6806E-01  3.6957E-01  -95.171
   126  203   1.2508   0.0000  -1.1258  0.25017   5.5516E-02 -2.8913E-01  2.9441E-01  -79.131
   127  203   1.2508   0.0000  -0.8756  0.25017   5.6077E-02  3.8120E-01  3.8530E-01   81.631
   128  203   1.2508   0.0000  -0.6254  0.25017  -5.5714E-02  2.9322E-01  2.9847E-01  100.758
   129  203   1.2508   0.0000  -0.3753  0.25017  -5.6563E-02 -3.9341E-01  3.9745E-01  -98.182
   130  203   1.2508   0.0000  -0.1251  0.25017   4.1005E-02 -3.4888E-01  3.5128E-01  -83.297
   131  203   1.2508   0.0000   0.1251  0.25017  -1.3116E-01  1.9762E-01  2.3718E-01  123.572
   132  203   1.2508   0.0000   0.3753  0.25017  -6.3063E-02  3.0790E-01  3.1430E-01  101.575
   133  203   1.2508   0.0000   0.6254  0.25017   1.3255E-01 -1.9031E-01  2.3192E-01  -55.143
   134  203   1.2508   0.0000   0.8756  0.25017   6.9393E-02 -2.9427E-01  3.0234E-01  -76.731
   135  203   1.2508   0.0000   1.1258  0.25017  -1.2325E-01  1.9207E-01  2.2822E-01  122.688
   136  203   1.2508   0.0000   1.3759  0.25017  -7.3604E-02  2.7842E-01  2.8799E-01  104.808
   137  203   1.2508   0.0000   1.6261  0.25017   1.1246E-01 -2.1130E-01  2.3937E-01  -61.976
   138  203   1.2508   0.0000   1.8763  0.25017   7.5554E-02 -2.8496E-01  2.9481E-01  -75.150
   139  203   1.2508   0.0000   2.1264  0.25017  -1.0359E-01  2.1468E-01  2.3837E-01  115.758
   140  203   1.2508   0.0000   2.3766  0.25017  -8.5367E-02  2.6924E-01  2.8245E-01  107.592
   141  204   3.7525   0.0000  -2.3766  0.25017  -1.2885E-01  3.3355E-01  3.5757E-01  111.122
   142  204   3.7525   0.0000  -2.1264  0.25017  -1.5373E-01  2.7188E-01  3.1233E-01  119.485
   143  204   3.7525   0.0000  -1.8763  0.25017   1.0601E-01 -3.4275E-01  3.5877E-01  -72.814
   144  204   3.7525   0.0000  -1.6261  0.25017   1.5621E-01 -2.5742E-01  3.0111E-01  -58.749
   145  204   3.7525   0.0000  -1.3759  0.25017  -1.0237E-01  3.4790E-01  3.6265E-01  106.397
   146  204   3.7525   0.0000  -1.1258  0.25017  -1.6335E-01  2.5193E-01  3.0025E-01  122.959
   147  204   3.7525   0.0000  -0.8756  0.25017   1.0103E-01 -3.5137E-01  3.6561E-01  -73.958
   148  204   3.7525   0.0000  -0.6254  0.25017   1.7694E-01 -2.4392E-01  3.0133E-01  -54.043
   149  204   3.7525   0.0000  -0.3753  0.25017  -9.6807E-02  3.6707E-01  3.7963E-01  104.774
   150  204   3.7525   0.0000  -0.1251  0.25017  -1.7784E-01  3.0127E-01  3.4984E-01  120.554
   151  204   3.7525   0.0000   0.1251  0.25017   2.0622E-01 -1.1712E-01  2.3716E-01  -29.594
   152  204   3.7525   0.0000   0.3753  0.25017   1.8229E-01 -2.4244E-01  3.0333E-01  -53.060
   153  204   3.7525   0.0000   0.6254  0.25017  -2.0752E-01  1.2531E-01  2.4241E-01  148.875
   154  204   3.7525   0.0000   0.8756  0.25017  -1.8432E-01  2.3591E-01  2.9938E-01  128.002
   155  204   3.7525   0.0000   1.1258  0.25017   2.0009E-01 -1.3268E-01  2.4009E-01  -33.549
   156  204   3.7525   0.0000   1.3759  0.25017   1.8410E-01 -2.3004E-01  2.9463E-01  -51.330
   157  204   3.7525   0.0000   1.6261  0.25017  -1.9360E-01  1.4139E-01  2.3973E-01  143.858
   158  204   3.7525   0.0000   1.8763  0.25017  -1.8135E-01  2.2374E-01  2.8801E-01  129.027
   159  204   3.7525   0.0000   2.1264  0.25017   1.9676E-01 -1.5585E-01  2.5101E-01  -38.383
   160  204   3.7525   0.0000   2.3766  0.25017   1.9499E-01 -2.1017E-01  2.8669E-01  -47.146
   161  301  -3.7525   2.5017  -2.3766  0.25017  -2.7830E-01 -2.3930E-01  3.6704E-01 -139.309
   162  301  -3.7525   2.5017  -2.1264  0.25017  -2.1393E-01 -2.3654E-01  3.1894E-01 -132.127
   163  301  -3.7525   2.5017  -1.8763  0.25017   2.9441E-01  2.2705E-01  3.7179E-01   37.639
   164  301  -3.7525   2.5017  -1.6261  0.25017   2.0324E-01  2.4201E-01  3.1603E-01   49.976
   165  301  -3.7525   2.5017  -1.3759  0.25017  -2.9293E-01 -2.1827E-01  3.6531E-01 -143.309
   166  301  -3.7525   2.5017  -1.1258  0.25017  -1.8347E-01 -2.4574E-01  3.0667E-01 -126.745
   167  301  -3.7525   2.5017  -0.8756  0.25017   3.1365E-01  2.1249E-01  3.7885E-01   34.116
   168  301  -3.7525   2.5017  -0.6254  0.25017   1.9011E-01  2.4689E-01  3.1160E-01   52.402
   169  301  -3.7525   2.5017  -0.3753  0.25017  -3.1439E-01 -2.2141E-01  3.8453E-01 -144.845
   170  301  -3.7525   2.5017  -0.1251  0.25017  -2.3290E-01 -2.6960E-01  3.5627E-01 -130.823
   171  301  -3.7525   2.5017   0.1251  0.25017   5.5868E-02  2.4560E-01  2.5187E-01   77.185
   172  301  -3.7525   2.5017   0.3753  0.25017   1.7754E-01  2.6415E-01  3.1827E-01   56.094
   173  301  -3.7525   2.5017   0.6254  0.25017  -6.5785E-02 -2.3629E-01  2.4528E-01 -105.557
   174  301  -3.7525   2.5017   0.8756  0.25017  -1.7448E-01 -2.5109E-01  3.0576E-01 -124.795
   175  301  -3.7525   2.5017   1.1258  0.25017   7.2904E-02  2.3953E-01  2.5038E-01   73.072
   176  301  -3.7525   2.5017   1.3759  0.25017   1.6993E-01  2.4679E-01  2.9964E-01   55.450
   177  301  -3.7525   2.5017   1.6261  0.25017  -8.1259E-02 -2.5039E-01  2.6324E-01 -107.980
   178  301  -3.7525   2.5017   1.8763  0.25017  -1.6584E-01 -2.6307E-01  3.1098E-01 -122.227
   179  301  -3.7525   2.5017   2.1264  0.25017   8.9320E-02  2.4019E-01  2.5626E-01   69.601
   180  301  -3.7525   2.5017   2.3766  0.25017   1.4379E-01  2.6146E-01  2.9839E-01   61.191
   181  302  -1.2508   2.5017  -2.3766  0.25017   1.5441E-01  3.3989E-01  3.7332E-01   65.568
   182  302  -1.2508   2.5017  -2.1264  0.25017   9.0325E-02  3.0424E-01  3.1736E-01   73.464
   183  302  -1.2508   2.5017  -1.8763  0.25017  -1.8183E-01 -3.4343E-01  3.8860E-01 -117.899
   184  302  -1.2508   2.5017  -1.6261  0.25017  -8.4482E-02 -3.1053E-01  3.2181E-01 -105.219
   185  302  -1.2508   2.5017  -1.3759  0.25017   1.7844E-01  3.3442E-01  3.7905E-01   61.917
   186  302  -1.2508   2.5017  -1.1258  0.25017   5.9263E-02  3.1172E-01  3.1731E-01   79.236
   187  302  -1.2508   2.5017  -0.8756  0.25017  -2.0377E-01 -3.2808E-01  3.8621E-01 -121.844
   188  302  -1.2508   2.5017  -0.6254  0.25017  -6.4844E-02 -3.0659E-01  3.1337E-01 -101.942
   189  302  -1.2508   2.5017  -0.3753  0.25017   2.0446E-01  3.4181E-01  3.9829E-01   59.114
   190  302  -1.2508   2.5017  -0.1251  0.25017   9.8067E-02  3.4715E-01  3.6073E-01   74.225
   191  302  -1.2508   2.5017   0.1251  0.25017   4.2315E-02 -2.5336E-01  2.5686E-01  -80.518
   192  302  -1.2508   2.5017   0.3753  0.25017  -6.0403E-02 -3.2026E-01  3.2590E-01 -100.681
   193  302  -1.2508   2.5017   0.6254  0.25017  -4.4334E-02  2.4730E-01  2.5124E-01  100.164
   194  302  -1.2508   2.5017   0.8756  0.25017   5.0983E-02  3.0563E-01  3.0985E-01   80.530
   195  302  -1.2508   2.5017   1.1258  0.25017   3.4213E-02 -2.5372E-01  2.5602E-01  -82.320
   196  302  -1.2508   2.5017   1.3759  0.25017  -4.6079E-02 -2.9774E-01  3.0129E-01  -98.798
   197  302  -1.2508   2.5017   1.6261  0.25017  -2.2786E-02  2.7237E-01  2.7332E-01   94.782
   198  302  -1.2508   2.5017   1.8763  0.25017   4.7301E-02  3.1696E-01  3.2047E-01   81.512
   199  302  -1.2508   2.5017   2.1264  0.25017   2.3096E-02 -2.6319E-01  2.6420E-01  -84.985
   200  302  -1.2508   2.5017   2.3766  0.25017  -1.9786E-02 -3.0616E-01  3.0680E-01  -93.698
   201  303   1.2508   2.5017  -2.3766  0.25017  -8.9953E-03 -3.7317E-01  3.7328E-01  -91.381
   202  303   1.2508   2.5017  -2.1264  0.25017   3.7008E-02 -3.1447E-01  3.1664E-01  -83.288
   203  303   1.2508   2.5017  -1.8763  0.25017   3.4334E-02  3.8788E-01  3.8939E-01   84.941
   204  303   1.2508   2.5017  -1.6261  0.25017  -4.2709E-02  3.1817E-01  3.2102E-01   97.645
   205  303   1.2508   2.5017  -1.3759  0.25017  -3.1645E-02 -3.7850E-01  3.7982E-01  -94.779
   206  303   1.2508   2.5017  -1.1258  0.25017   7.0428E-02 -3.0999E-01  3.1789E-01  -77.200
   207  303   1.2508   2.5017  -0.8756  0.25017   6.2219E-02  3.8157E-01  3.8661E-01   80.739
   208  303   1.2508   2.5017  -0.6254  0.25017  -5.8068E-02  3.0591E-01  3.1137E-01  100.748
   209  303   1.2508   2.5017  -0.3753  0.25017  -5.2233E-02 -3.9636E-01  3.9979E-01  -97.507
   210  303   1.2508   2.5017  -0.1251  0.25017   4.7514E-02 -3.5827E-01  3.6141E-01  -82.446
   211  303   1.2508   2.5017   0.1251  0.25017  -1.3978E-01  2.1529E-01  2.5668E-01  122.994
   212  303   1.2508   2.5017   0.3753  0.25017  -7.1115E-02  3.1925E-01  3.2708E-01  102.558
   213  303   1.2508   2.5017   0.6254  0.25017   1.3862E-01 -2.0711E-01  2.4922E-01  -56.206
   214  303   1.2508   2.5017   0.8756  0.25017   7.2901E-02 -3.0059E-01  3.0931E-01  -76.368
   215  303   1.2508   2.5017   1.1258  0.25017  -1.3259E-01  2.1700E-01  2.5430E-01  121.425
   216  303   1.2508   2.5017   1.3759  0.25017  -7.4629E-02  2.8949E-01  2.9896E-01  104.456
   217  303   1.2508   2.5017   1.6261  0.25017   1.2907E-01 -2.4206E-01  2.7432E-01  -61.933
   218  303   1.2508   2.5017   1.8763  0.25017   8.0277E-02 -3.1185E-01  3.2201E-01  -75.564
   219  303   1.2508   2.5017   2.1264  0.25017  -1.2709E-01  2.2918E-01  2.6206E-01  119.010
   220  303   1.2508   2.5017   2.3766  0.25017  -1.0313E-01  2.8738E-01  3.0533E-01  109.742
   221  304   3.7525   2.5017  -2.3766  0.25017  -1.4096E-01  3.3862E-01  3.6679E-01  112.601
   222  304   3.7525   2.5017  -2.1264  0.25017  -1.6627E-01  2.7151E-01  3.1838E-01  121.483
   223  304   3.7525   2.5017  -1.8763  0.25017   1.1574E-01 -3.5811E-01  3.7635E-01  -72.090
   224  304   3.7525   2.5017  -1.6261  0.25017   1.6961E-01 -2.6853E-01  3.1761E-01  -57.723
   225  304   3.7525   2.5017  -1.3759  0.25017  -1.1010E-01  3.5558E-01  3.7223E-01  107.204
   226  304   3.7525   2.5017  -1.1258  0.25017  -1.8006E-01  2.6103E-01  3.1711E-01  124.599
   227  304   3.7525   2.5017  -0.8756  0.25017   9.7943E-02 -3.5809E-01  3.7125E-01  -74.703
   228  304   3.7525   2.5017  -0.6254  0.25017   1.7994E-01 -2.5267E-01  3.1019E-01  -54.543
   229  304   3.7525   2.5017  -0.3753  0.25017  -1.0424E-01  3.7235E-01  3.8667E-01  105.639
   230  304   3.7525   2.5017  -0.1251  0.25017  -1.8545E-01  3.0645E-01  3.5819E-01  121.181
   231  304   3.7525   2.5017   0.1251  0.25017   2.1533E-01 -1.3108E-01  2.5209E-01  -31.329
   232  304   3.7525   2.5017   0.3753  0.25017   1.9143E-01 -2.5255E-01  3.1691E-01  -52.838
   233  304   3.7525   2.5017   0.6254  0.25017  -2.1348E-01  1.3436E-01  2.5224E-01  147.814
   234  304   3.7525   2.5017   0.8756  0.25017  -1.8847E-01  2.4027E-01  3.0537E-01  128.111
   235  304   3.7525   2.5017   1.1258  0.25017   2.0979E-01 -1.4712E-01  2.5623E-01  -35.041
   236  304   3.7525   2.5017   1.3759  0.25017   1.8604E-01 -2.3592E-01  3.0044E-01  -51.742
   237  304   3.7525   2.5017   1.6261  0.25017  -2.1204E-01  1.6237E-01  2.6707E-01  142.556
   238  304   3.7525   2.5017   1.8763  0.25017  -1.9206E-01  2.4424E-01  3.1071E-01  128.180
   239  304   3.7525   2.5017   2.1264  0.25017   2.1389E-01 -1.6048E-01  2.6740E-01  -36.880
   240  304   3.7525   2.5017   2.3766  0.25017   2.1058E-01 -2.1958E-01  3.0424E-01  -46.199



                                        - - - POWER BUDGET - - -

                                           INPUT POWER   = 2.1382E+02 WATTS
                                           RADIATED POWER= 2.1382E+02 WATTS
                                           STRUCTURE LOSS= 0.0000E+00 WATTS
                                           NETWORK LOSS  = 0.0000E+00 WATTS
                                           EFFICIENCY    = 100.00 PERCENT



                                                - - - RADIATION PATTERNS - - -

  - - ANGLES - -       - DIRECTIVE GAINS -       - - - POLARIZATION - - -    - - - E(THETA) - - -    - - - E(PHI) - - -
  THETA     PHI        VERT.   HOR.    TOTAL      AXIAL     TILT   SENSE     MAGNITUDE    PHASE      MAGNITUDE    PHASE 
 DEGREES  DEGREES       DB      DB      DB        RATIO     DEG.              VOLTS/M    DEGREES      VOLTS/M    DEGREES
    0.00     0.00    -999.99 -999.99 -999.99    0.00000     0.00            0.00000E+00     0.00    0.00000E+00     0.00
    5.00     0.00     -10.11 -999.99  -10.11    0.00000     0.00  LINEAR    3.53596E+01     0.01    0.00000E+00     0.00
   10.00     0.00      11.54 -999.99   11.54    0.00000     0.00  LINEAR    4.27645E+02     0.00    0.00000E+00     0.00
   15.00     0.00       0.43 -999.99    0.43    0.00000     0.00  LINEAR    1.19037E+02     0.14    0.00000E+00     0.00
   20.00     0.00       3.53 -999.99    3.53    0.00000     0.00  LINEAR    1.70084E+02   179.87    0.00000E+00     0.00
   25.00     0.00       6.51 -999.99    6.51    0.00000     0.00  LINEAR    2.39493E+02     0.01    0.00000E+00     0.00
   30.00     0.00       7.41 -999.99    7.41    0.00000     0.00  LINEAR    2.65803E+02  -179.43    0.00000E+00     0.00
   35.00     0.00      11.88 -999.99   11.88    0.00000     0.00  LINEAR    4.44324E+02  -178.75    0.00000E+00     0.00
   40.00     0.00     -22.09 -999.99  -22.09    0.00000     0.00  LINEAR    8.90233E+00  -153.88    0.00000E+00     0.00
   45.00     0.00      -4.81 -999.99   -4.81    0.00000     0.00  LINEAR    6.50477E+01  -179.53    0.00000E+00     0.00
   50.00     0.00     -21.68 -999.99  -21.68    0.00000     0.00  LINEAR    9.33354E+00  -172.94    0.00000E+00     0.00
   55.00     0.00      -6.08 -999.99   -6.08    0.00000     0.00  LINEAR    5.62197E+01  -174.46    0.00000E+00     0.00
   60.00     0.00     -10.86 -999.99  -10.86    0.00000     0.00  LINEAR    3.24467E+01  -164.90    0.00000E+00     0.00
   65.00     0.00       1.87 -999.99    1.87    0.00000     0.00  LINEAR    1.40439E+02     7.44    0.00000E+00     0.00
   70.00     0.00      -2.44 -999.99   -2.44    0.00000     0.00  LINEAR    8.54731E+01   156.16    0.00000E+00     0.00
   75.00     0.00       4.51 -999.99    4.51    0.00000     0.00  LINEAR    1.90257E+02   172.76    0.00000E+00     0.00
   80.00     0.00       2.25 -999.99    2.25    0.00000     0.00  LINEAR    1.46675E+02    15.74    0.00000E+00     0.00
   85.00     0.00       9.90 -999.99    9.90    0.00000     0.00  LINEAR    3.54046E+02    13.46    0.00000E+00     0.00
   90.00     0.00       2.24 -999.99    2.24    0.00000     0.00  LINEAR    1.46481E+02    40.66    0.00000E+00     0.00
    0.00     5.00    -999.99 -999.99 -999.99    0.00000     0.00            0.00000E+00     0.00    0.00000E+00     0.00
    5.00     5.00     -10.38 -999.99  -10.38    0.00000     0.00  LINEAR    3.42865E+01     0.01    0.00000E+00     0.00
   10.00     5.00      11.38 -999.99   11.38    0.00000     0.00  LINEAR    4.19485E+02     0.00    0.00000E+00     0.00
   15.00     5.00       0.65 -999.99    0.65    0.00000     0.00  LINEAR    1.21998E+02     0.14    0.00000E+00     0.00
   20.00     5.00       3.13 -999.99    3.13    0.00000     0.00  LINEAR    1.62301E+02   179.87    0.00000E+00     0.00
   25.00     5.00       5.44 -999.99    5.44    0.00000     0.00  LINEAR    2.11840E+02     0.03    0.00000E+00     0.00
   30.00     5.00       5.29 -999.99    5.29    0.00000     0.00  LINEAR    2.08294E+02  -179.33    0.00000E+00     0.00
   35.00     5.00       9.99 -999.99    9.99    0.00000     0.00  LINEAR    3.57707E+02  -178.46    0.00000E+00     0.00
   40.00     5.00     -21.97 -999.99  -21.97    0.00000     0.00  LINEAR    9.02270E+00  -150.59    0.00000E+00     0.00
   45.00     5.00      -8.26 -999.99   -8.26    0.00000     0.00  LINEAR    4.37456E+01  -179.78    0.00000E+00     0.00
   50.00     5.00     -22.75 -999.99  -22.75    0.00000     0.00  LINEAR    8.24913E+00  -173.66    0.00000E+00     0.00
   55.00     5.00     -10.41 -999.99  -10.41    0.00000     0.00  LINEAR    3.41523E+01  -175.01    0.00000E+00     0.00
   60.00     5.00     -12.41 -999.99  -12.41    0.00000     0.00  LINEAR    2.71377E+01  -169.08    0.00000E+00     0.00
   65.00     5.00      -4.47 -999.99   -4.47    0.00000     0.00  LINEAR    6.77018E+01     7.83    0.00000E+00     0.00
   70.00     5.00      -8.08 -999.99   -8.08    0.00000     0.00  LINEAR    4.46569E+01   154.11    0.00000E+00     0.00
   75.00     5.00      -1.75 -999.99   -1.75    0.00000     0.00  LINEAR    9.26084E+01   171.84    0.00000E+00     0.00
   80.00     5.00      -3.79 -999.99   -3.79    0.00000     0.00  LINEAR    7.31790E+01    13.64    0.00000E+00     0.00
   85.00     5.00       3.66 -999.99    3.66    0.00000     0.00  LINEAR    1.72553E+02    12.42    0.00000E+00     0.00
   90.00     5.00      -3.88 -999.99   -3.88    0.00000     0.00  LINEAR    7.24735E+01    40.08    0.00000E+00     0.00
    0.00    10.00    -999.99 -999.99 -999.99    0.00000     0.00            0.00000E+00     0.00    0.00000E+00     0.00
    5.00    10.00     -11.21 -999.99  -11.21    0.00000     0.00  LINEAR    3.11468E+01     0.00    0.00000E+00     0.00
   10.00    10.00      10.86 -999.99   10.86    0.00000     0.00  LINEAR    3.95388E+02     0.00    0.00000E+00     0.00
   15.00    10.00       1.06 -999.99    1.06    0.00000     0.00  LINEAR    1.27881E+02     0.13    0.00000E+00     0.00
   20.00    10.00       1.64 -999.99    1.64    0.00000     0.00  LINEAR    1.36764E+02   179.90    0.00000E+00     0.00
   25.00    10.00       1.72 -999.99    1.72    0.00000     0.00  LINEAR    1.38073E+02     0.08    0.00000E+00     0.00
   30.00    10.00      -2.37 -999.99   -2.37    0.00000     0.00  LINEAR    8.61741E+01  -178.74    0.00000E+00     0.00
   35.00    10.00       2.42 -999.99    2.42    0.00000     0.00  LINEAR    1.49670E+02  -176.44    0.00000E+00     0.00
   40.00    10.00     -21.37 -999.99  -21.37    0.00000     0.00  LINEAR    9.66865E+00  -142.64    0.00000E+00     0.00
   45.00    10.00     -29.65 -999.99  -29.65    0.00000     0.00  LINEAR    3.72712E+00   175.79    0.00000E+00     0.00
   50.00    10.00     -35.22 -999.99  -35.22    0.00000     0.00  LINEAR    1.96285E+00   -14.96    0.00000E+00     0.00
   55.00    10.00     -29.46 -999.99  -29.46    0.00000     0.00  LINEAR    3.80839E+00    13.58    0.00000E+00     0.00
   60.00    10.00     -17.91 -999.99  -17.91    0.00000     0.00  LINEAR    1.44065E+01    12.21    0.00000E+00     0.00
   65.00    10.00     -17.07 -999.99  -17.07    0.00000     0.00  LINEAR    1.58665E+01   179.46    0.00000E+00     0.00
   70.00    10.00     -18.42 -999.99  -18.42    0.00000     0.00  LINEAR    1.35759E+01    -4.51    0.00000E+00     0.00
   75.00    10.00      -7.50 -999.99   -7.50    0.00000     0.00  LINEAR    4.77371E+01    -2.97    0.00000E+00     0.00
   80.00    10.00      -9.76 -999.99   -9.76    0.00000     0.00  LINEAR    3.67971E+01  -155.57    0.00000E+00     0.00
   85.00    10.00      -0.87 -999.99   -0.87    0.00000     0.00  LINEAR    1.02407E+02  -163.13    0.00000E+00     0.00
   90.00    10.00      -9.06 -999.99   -9.06    0.00000     0.00  LINEAR    3.99098E+01  -138.43    0.00000E+00     0.00
    0.00    15.00    -999.99 -999.99 -999.99    0.00000     0.00            0.00000E+00     0.00    0.00000E+00     0.00
    5.00    15.00     -12.72 -999.99  -12.72    0.00000     0.00  LINEAR    2.61725E+01    -0.01    0.00000E+00     0.00
   10.00    15.00       9.96 -999.99    9.96    0.00000     0.00  LINEAR    3.56594E+02     0.00    0.00000E+00     0.00
   15.00    15.00       1.10 -999.99    1.10    0.00000     0.00  LINEAR    1.28584E+02     0.13    0.00000E+00     0.00
   20.00    15.00      -1.91 -999.99   -1.91    0.00000     0.00  LINEAR    9.09057E+01   179.95    0.00000E+00     0.00
   25.00    15.00      -7.53 -999.99   -7.53    0.00000     0.00  LINEAR    4.75892E+01     0.29    0.00000E+00     0.00
   30.00    15.00     -34.66 -999.99  -34.66    0.00000     0.00  LINEAR    2.09301E+00  -150.83    0.00000E+00     0.00
   35.00    15.00      -6.84 -999.99   -6.84    0.00000     0.00  LINEAR    5.14992E+01    -9.52    0.00000E+00     0.00
   40.00    15.00     -20.12 -999.99  -20.12    0.00000     0.00  LINEAR    1.11736E+01  -136.46    0.00000E+00     0.00
   45.00    15.00     -23.65 -999.99  -23.65    0.00000     0.00  LINEAR    7.43879E+00    -1.54    0.00000E+00     0.00
   50.00    15.00     -17.06 -999.99  -17.06    0.00000     0.00  LINEAR    1.58798E+01    -1.17    0.00000E+00     0.00
   55.00    15.00     -21.58 -999.99  -21.58    0.00000     0.00  LINEAR    9.44393E+00     5.25    0.00000E+00     0.00
   60.00    15.00      -9.40 -999.99   -9.40    0.00000     0.00  LINEAR    3.83456E+01     8.35    0.00000E+00     0.00
   65.00    15.00     -33.84 -999.99  -33.84    0.00000     0.00  LINEAR    2.30227E+00   105.35    0.00000E+00     0.00
   70.00    15.00     -21.95 -999.99  -21.95    0.00000     0.00  LINEAR    9.04255E+00     2.34    0.00000E+00     0.00
   75.00    15.00     -13.75 -999.99  -13.75    0.00000     0.00  LINEAR    2.32410E+01    -0.60    0.00000E+00     0.00
   80.00    15.00     -19.19 -999.99  -19.19    0.00000     0.00  LINEAR    1.24299E+01  -144.14    0.00000E+00     0.00
   85.00    15.00     -12.28 -999.99  -12.28    0.00000     0.00  LINEAR    2.75380E+01  -156.39    0.00000E+00     0.00
   90.00    15.00     -23.91 -999.99  -23.91    0.00000     0.00  LINEAR    7.21507E+00  -134.92    0.00000E+00     0.00
    0.00    20.00    -999.99 -999.99 -999.99    0.00000     0.00            0.00000E+00     0.00    0.00000E+00     0.00
    5.00    20.00     -15.18 -999.99  -15.18    0.00000     0.00  LINEAR    1.97270E+01    -0.02    0.00000E+00     0.00
   10.00    20.00       8.62 -999.99    8.62    0.00000     0.00  LINEAR    3.05423E+02    -0.01    0.00000E+00     0.00
   15.00    20.00       0.03 -999.99    0.03    0.00000     0.00  LINEAR    1.13627E+02     0.15    0.00000E+00     0.00
   20.00    20.00     -11.35 -999.99  -11.35    0.00000     0.00  LINEAR    3.06675E+01  -179.81    0.00000E+00     0.00
   25.00    20.00     -17.28 -999.99  -17.28    0.00000     0.00  LINEAR    1.54872E+01   179.76    0.00000E+00     0.00
   30.00    20.00     -25.05 -999.99  -25.05    0.00000     0.00  LINEAR    6.32844E+00  -179.43    0.00000E+00     0.00
   35.00    20.00       0.47 -999.99    0.47    0.00000     0.00  LINEAR    1.19482E+02    -3.41    0.00000E+00     0.00
   40.00    20.00     -18.76 -999.99  -18.76    0.00000     0.00  LINEAR    1.30539E+01  -137.09    0.00000E+00     0.00
   45.00    20.00     -21.27 -999.99  -21.27    0.00000     0.00  LINEAR    9.78720E+00  -173.39    0.00000E+00     0.00
   50.00    20.00     -28.48 -999.99  -28.48    0.00000     0.00  LINEAR    4.26713E+00     0.88    0.00000E+00     0.00
   55.00    20.00     -40.89 -999.99  -40.89    0.00000     0.00  LINEAR    1.02166E+00   -56.18    0.00000E+00     0.00
   60.00    20.00     -10.52 -999.99  -10.52    0.00000     0.00  LINEAR    3.37093E+01  -173.57    0.00000E+00     0.00
   65.00    20.00     -13.85 -999.99  -13.85    0.00000     0.00  LINEAR    2.29901E+01  -161.44    0.00000E+00     0.00
   70.00    20.00     -25.80 -999.99  -25.80    0.00000     0.00  LINEAR    5.80500E+00   163.86    0.00000E+00     0.00
   75.00    20.00      -5.96 -999.99   -5.96    0.00000     0.00  LINEAR    5.70342E+01   172.16    0.00000E+00     0.00
   80.00    20.00      -3.80 -999.99   -3.80    0.00000     0.00  LINEAR    7.31206E+01    14.59    0.00000E+00     0.00
   85.00    20.00       6.17 -999.99    6.17    0.00000     0.00  LINEAR    2.30264E+02    12.38    0.00000E+00     0.00
   90.00    20.00      -0.84 -999.99   -0.84    0.00000     0.00  LINEAR    1.02768E+02    39.04    0.00000E+00     0.00
    0.00    25.00    -999.99 -999.99 -999.99    0.00000     0.00            0.00000E+00     0.00    0.00000E+00     0.00
    5.00    25.00     -19.30 -999.99  -19.30    0.00000     0.00  LINEAR    1.22718E+01    -0.06    0.00000E+00     0.00
   10.00    25.00       6.72 -999.99    6.72    0.00000     0.00  LINEAR    2.45471E+02    -0.02    0.00000E+00     0.00
   15.00    25.00      -3.63 -999.99   -3.63    0.00000     0.00  LINEAR    7.45260E+01     0.27    0.00000E+00     0.00
   20.00    25.00     -13.50 -999.99  -13.50    0.00000     0.00  LINEAR    2.39284E+01    -0.47    0.00000E+00     0.00
   25.00    25.00     -15.08 -999.99  -15.08    0.00000     0.00  LINEAR    1.99438E+01  -179.01    0.00000E+00     0.00
   30.00    25.00      -7.99 -999.99   -7.99    0.00000     0.00  LINEAR    4.51235E+01   179.18    0.00000E+00     0.00
   35.00    25.00      -7.11 -999.99   -7.11    0.00000     0.00  LINEAR    4.99307E+01    -5.92    0.00000E+00     0.00
   40.00    25.00     -18.07 -999.99  -18.07    0.00000     0.00  LINEAR    1.41465E+01  -142.11    0.00000E+00     0.00
   45.00    25.00     -11.24 -999.99  -11.24    0.00000     0.00  LINEAR    3.10366E+01    -1.23    0.00000E+00     0.00
   50.00    25.00     -16.20 -999.99  -16.20    0.00000     0.00  LINEAR    1.75411E+01   174.09    0.00000E+00     0.00
   55.00    25.00     -10.41 -999.99  -10.41    0.00000     0.00  LINEAR    3.41359E+01     3.60    0.00000E+00     0.00
   60.00    25.00      -9.62 -999.99   -9.62    0.00000     0.00  LINEAR    3.74147E+01  -170.95    0.00000E+00     0.00
   65.00    25.00      -3.38 -999.99   -3.38    0.00000     0.00  LINEAR    7.67581E+01  -164.32    0.00000E+00     0.00
   70.00    25.00     -13.07 -999.99  -13.07    0.00000     0.00  LINEAR    2.51469E+01   -30.53    0.00000E+00     0.00
   75.00    25.00     -22.60 -999.99  -22.60    0.00000     0.00  LINEAR    8.39071E+00   168.83    0.00000E+00     0.00
   80.00    25.00     -10.22 -999.99  -10.22    0.00000     0.00  LINEAR    3.49153E+01    20.60    0.00000E+00     0.00
   85.00    25.00       2.12 -999.99    2.12    0.00000     0.00  LINEAR    1.44481E+02    13.32    0.00000E+00     0.00
   90.00    25.00      -4.58 -999.99   -4.58    0.00000     0.00  LINEAR    6.68108E+01    39.88    0.00000E+00     0.00
    0.00    30.00    -999.99 -999.99 -999.99    0.00000     0.00            0.00000E+00     0.00    0.00000E+00     0.00
    5.00    30.00     -28.36 -999.99  -28.36    0.00000     0.00  LINEAR    4.32514E+00    -0.23    0.00000E+00     0.00
   10.00    30.00       4.10 -999.99    4.10    0.00000     0.00  LINEAR    1.81592E+02    -0.03    0.00000E+00     0.00
   15.00    30.00     -21.29 -999.99  -21.29    0.00000     0.00  LINEAR    9.75712E+00     2.60    0.00000E+00     0.00
   20.00    30.00      -7.93 -999.99   -7.93    0.00000     0.00  LINEAR    4.54384E+01    -0.12    0.00000E+00     0.00
   25.00    30.00     -16.26 -999.99  -16.26    0.00000     0.00  LINEAR    1.74092E+01    -2.65    0.00000E+00     0.00
   30.00    30.00     -11.85 -999.99  -11.85    0.00000     0.00  LINEAR    2.89320E+01   178.28    0.00000E+00     0.00
   35.00    30.00     -12.54 -999.99  -12.54    0.00000     0.00  LINEAR    2.67188E+01  -173.87    0.00000E+00     0.00
   40.00    30.00     -18.87 -999.99  -18.87    0.00000     0.00  LINEAR    1.28960E+01  -145.44    0.00000E+00     0.00
   45.00    30.00       3.60 -999.99    3.60    0.00000     0.00  LINEAR    1.71439E+02     0.43    0.00000E+00     0.00
   50.00    30.00     -13.94 -999.99  -13.94    0.00000     0.00  LINEAR    2.27374E+01    12.63    0.00000E+00     0.00
   55.00    30.00      -6.52 -999.99   -6.52    0.00000     0.00  LINEAR    5.34537E+01     6.70    0.00000E+00     0.00
   60.00    30.00      -3.53 -999.99   -3.53    0.00000     0.00  LINEAR    7.54211E+01     4.09    0.00000E+00     0.00
   65.00    30.00     -16.87 -999.99  -16.87    0.00000     0.00  LINEAR    1.62433E+01  -151.23    0.00000E+00     0.00
   70.00    30.00     -13.20 -999.99  -13.20    0.00000     0.00  LINEAR    2.47679E+01   -25.18    0.00000E+00     0.00
   75.00    30.00     -13.05 -999.99  -13.05    0.00000     0.00  LINEAR    2.52076E+01    -6.01    0.00000E+00     0.00
   80.00    30.00     -17.36 -999.99  -17.36    0.00000     0.00  LINEAR    1.53416E+01   177.97    0.00000E+00     0.00
   85.00    30.00     -15.80 -999.99  -15.80    0.00000     0.00  LINEAR    1.83625E+01  -179.93    0.00000E+00     0.00
   90.00    30.00     -26.11 -999.99  -26.11    0.00000     0.00  LINEAR    5.60176E+00  -166.03    0.00000E+00     0.00
    0.00    35.00    -999.99 -999.99 -999.99    0.00000     0.00            0.00000E+00     0.00    0.00000E+00     0.00
    5.00    35.00     -29.99 -999.99  -29.99    0.00000     0.00  LINEAR    3.58638E+00  -179.66    0.00000E+00     0.00
   10.00    35.00       0.47 -999.99    0.47    0.00000     0.00  LINEAR    1.19518E+02    -0.05    0.00000E+00     0.00
   15.00    35.00      -3.94 -999.99   -3.94    0.00000     0.00  LINEAR    7.19058E+01   179.56    0.00000E+00     0.00
   20.00    35.00     -15.45 -999.99  -15.45    0.00000     0.00  LINEAR    1.91226E+01     0.82    0.00000E+00     0.00
   25.00    35.00     -10.20 -999.99  -10.20    0.00000     0.00  LINEAR    3.50065E+01    -1.56    0.00000E+00     0.00
   30.00    35.00     -10.13 -999.99  -10.13    0.00000     0.00  LINEAR    3.52542E+01     1.10    0.00000E+00     0.00
   35.00    35.00     -21.50 -999.99  -21.50    0.00000     0.00  LINEAR    9.52742E+00    -2.68    0.00000E+00     0.00
   40.00    35.00     -22.46 -999.99  -22.46    0.00000     0.00  LINEAR    8.53420E+00  -142.27    0.00000E+00     0.00
   45.00    35.00       7.41 -999.99    7.41    0.00000     0.00  LINEAR    2.65807E+02     0.40    0.00000E+00     0.00
   50.00    35.00      -1.76 -999.99   -1.76    0.00000     0.00  LINEAR    9.24553E+01     4.41    0.00000E+00     0.00
   55.00    35.00     -23.50 -999.99  -23.50    0.00000     0.00  LINEAR    7.56563E+00   132.06    0.00000E+00     0.00
   60.00    35.00      -8.44 -999.99   -8.44    0.00000     0.00  LINEAR    4.28434E+01     7.06    0.00000E+00     0.00
   65.00    35.00     -23.92 -999.99  -23.92    0.00000     0.00  LINEAR    7.20802E+00    11.91    0.00000E+00     0.00
   70.00    35.00     -48.32 -999.99  -48.32    0.00000     0.00  LINEAR    4.34291E-01    62.98    0.00000E+00     0.00
   75.00    35.00     -27.33 -999.99  -27.33    0.00000     0.00  LINEAR    4.86962E+00   169.16    0.00000E+00     0.00
   80.00    35.00     -23.65 -999.99  -23.65    0.00000     0.00  LINEAR    7.43509E+00    17.73    0.00000E+00     0.00
   85.00    35.00     -12.77 -999.99  -12.77    0.00000     0.00  LINEAR    2.60388E+01    13.28    0.00000E+00     0.00
   90.00    35.00     -20.18 -999.99  -20.18    0.00000     0.00  LINEAR    1.10862E+01    39.99    0.00000E+00     0.00
    0.00    40.00    -999.99 -999.99 -999.99    0.00000     0.00            0.00000E+00     0.00    0.00000E+00     0.00
    5.00    40.00     -20.27 -999.99  -20.27    0.00000     0.00  LINEAR    1.09740E+01  -179.88    0.00000E+00     0.00
   10.00    40.00      -4.81 -999.99   -4.81    0.00000     0.00  LINEAR    6.50716E+01    -0.11    0.00000E+00     0.00
   15.00    40.00       2.56 -999.99    2.56    0.00000     0.00  LINEAR    1.52023E+02   179.76    0.00000E+00     0.00
   20.00    40.00      -9.83 -999.99   -9.83    0.00000     0.00  LINEAR    3.65085E+01   178.66    0.00000E+00     0.00
   25.00    40.00     -23.44 -999.99  -23.44    0.00000     0.00  LINEAR    7.62325E+00  -176.43    0.00000E+00     0.00
   30.00    40.00     -10.84 -999.99  -10.84    0.00000     0.00  LINEAR    3.24884E+01     0.71    0.00000E+00     0.00
   35.00    40.00      -1.04 -999.99   -1.04    0.00000     0.00  LINEAR    1.00493E+02     0.89    0.00000E+00     0.00
   40.00    40.00     -31.96 -999.99  -31.96    0.00000     0.00  LINEAR    2.85804E+00  -126.17    0.00000E+00     0.00
   45.00    40.00       3.68 -999.99    3.68    0.00000     0.00  LINEAR    1.72877E+02     0.01    0.00000E+00     0.00
   50.00    40.00      -5.05 -999.99   -5.05    0.00000     0.00  LINEAR    6.33279E+01     5.14    0.00000E+00     0.00
   55.00    40.00     -19.92 -999.99  -19.92    0.00000     0.00  LINEAR    1.14210E+01   138.37    0.00000E+00     0.00
   60.00    40.00     -17.17 -999.99  -17.17    0.00000     0.00  LINEAR    1.56750E+01    15.56    0.00000E+00     0.00
   65.00    40.00     -16.87 -999.99  -16.87    0.00000     0.00  LINEAR    1.62349E+01  -169.03    0.00000E+00     0.00
   70.00    40.00     -22.38 -999.99  -22.38    0.00000     0.00  LINEAR    8.61102E+00   -17.22    0.00000E+00     0.00
   75.00    40.00     -19.24 -999.99  -19.24    0.00000     0.00  LINEAR    1.23549E+01    -1.64    0.00000E+00     0.00
   80.00    40.00     -27.21 -999.99  -27.21    0.00000     0.00  LINEAR    4.93634E+00  -162.11    0.00000E+00     0.00
   85.00    40.00     -25.29 -999.99  -25.29    0.00000     0.00  LINEAR    6.16152E+00  -164.34    0.00000E+00     0.00
   90.00    40.00     -35.85 -999.99  -35.85    0.00000     0.00  LINEAR    1.82481E+00  -153.22    0.00000E+00     0.00
    0.00    45.00    -999.99 -999.99 -999.99    0.00000     0.00            0.00000E+00     0.00    0.00000E+00     0.00
    5.00    45.00     -16.25 -999.99  -16.25    0.00000     0.00  LINEAR    1.74294E+01  -179.92    0.00000E+00     0.00
   10.00    45.00     -13.80 -999.99  -13.80    0.00000     0.00  LINEAR    2.31175E+01    -0.31    0.00000E+00     0.00
   15.00    45.00       5.31 -999.99    5.31    0.00000     0.00  LINEAR    2.08557E+02   179.81    0.00000E+00     0.00
   20.00    45.00      -4.16 -999.99   -4.16    0.00000     0.00  LINEAR    7.01531E+01   178.80    0.00000E+00     0.00
   25.00    45.00      -5.99 -999.99   -5.99    0.00000     0.00  LINEAR    5.68261E+01   179.40    0.00000E+00     0.00
   30.00    45.00      -1.83 -999.99   -1.83    0.00000     0.00  LINEAR    9.16931E+01   179.75    0.00000E+00     0.00
   35.00    45.00      -1.62 -999.99   -1.62    0.00000     0.00  LINEAR    9.39329E+01     1.32    0.00000E+00     0.00
   40.00    45.00     -38.68 -999.99  -38.68    0.00000     0.00  LINEAR    1.31744E+00    32.86    0.00000E+00     0.00
   45.00    45.00     -12.54 -999.99  -12.54    0.00000     0.00  LINEAR    2.67255E+01    -2.15    0.00000E+00     0.00
   50.00    45.00     -14.55 -999.99  -14.55    0.00000     0.00  LINEAR    2.12160E+01   174.91    0.00000E+00     0.00
   55.00    45.00      -4.74 -999.99   -4.74    0.00000     0.00  LINEAR    6.56217E+01    10.05    0.00000E+00     0.00
   60.00    45.00       1.72 -999.99    1.72    0.00000     0.00  LINEAR    1.37964E+02     6.30    0.00000E+00     0.00
   65.00    45.00      -9.20 -999.99   -9.20    0.00000     0.00  LINEAR    3.92550E+01     5.75    0.00000E+00     0.00
   70.00    45.00     -29.54 -999.99  -29.54    0.00000     0.00  LINEAR    3.77519E+00   -22.69    0.00000E+00     0.00
   75.00    45.00     -36.23 -999.99  -36.23    0.00000     0.00  LINEAR    1.74694E+00  -170.58    0.00000E+00     0.00
   80.00    45.00     -19.75 -999.99  -19.75    0.00000     0.00  LINEAR    1.16591E+01     4.49    0.00000E+00     0.00
   85.00    45.00      -9.27 -999.99   -9.27    0.00000     0.00  LINEAR    3.89252E+01     9.32    0.00000E+00     0.00
   90.00    45.00     -15.44 -999.99  -15.44    0.00000     0.00  LINEAR    1.91421E+01    32.51    0.00000E+00     0.00
    0.00    50.00    -999.99 -999.99 -999.99    0.00000     0.00            0.00000E+00     0.00    0.00000E+00     0.00
    5.00    50.00     -13.98 -999.99  -13.98    0.00000     0.00  LINEAR    2.26538E+01  -179.94    0.00000E+00     0.00
   10.00    50.00     -30.28 -999.99  -30.28    0.00000     0.00  LINEAR    3.46767E+00  -178.05    0.00000E+00     0.00
   15.00    50.00       5.97 -999.99    5.97    0.00000     0.00  LINEAR    2.25122E+02   179.83    0.00000E+00     0.00
   20.00    50.00     -11.57 -999.99  -11.57    0.00000     0.00  LINEAR    2.98845E+01   176.43    0.00000E+00     0.00
   25.00    50.00     -17.00 -999.99  -17.00    0.00000     0.00  LINEAR    1.59880E+01     6.72    0.00000E+00     0.00
   30.00    50.00       4.88 -999.99    4.88    0.00000     0.00  LINEAR    1.98525E+02   179.73    0.00000E+00     0.00
   35.00    50.00     -17.62 -999.99  -17.62    0.00000     0.00  LINEAR    1.48856E+01   175.92    0.00000E+00     0.00
   40.00    50.00     -36.96 -999.99  -36.96    0.00000     0.00  LINEAR    1.60587E+00    68.44    0.00000E+00     0.00
   45.00    50.00     -28.20 -999.99  -28.20    0.00000     0.00  LINEAR    4.40520E+00     1.04    0.00000E+00     0.00
   50.00    50.00     -16.62 -999.99  -16.62    0.00000     0.00  LINEAR    1.67022E+01  -177.06    0.00000E+00     0.00
   55.00    50.00      -8.61 -999.99   -8.61    0.00000     0.00  LINEAR    4.20029E+01     7.44    0.00000E+00     0.00
   60.00    50.00     -13.93 -999.99  -13.93    0.00000     0.00  LINEAR    2.27819E+01    14.65    0.00000E+00     0.00
[...]
   40.00   315.00     -38.68 -999.99  -38.68    0.00000     0.00  LINEAR    1.31744E+00    32.86    0.00000E+00     0.00
   45.00   315.00     -12.54 -999.99  -12.54    0.00000     0.00  LINEAR    2.67255E+01    -2.15    0.00000E+00     0.00
   50.00   315.00     -14.55 -999.99  -14.55    0.00000     0.00  LINEAR    2.12160E+01   174.91    0.00000E+00     0.00
   55.00   315.00      -4.74 -999.99   -4.74    0.00000     0.00  LINEAR    6.56217E+01    10.05    0.00000E+00     0.00
   60.00   315.00       1.72 -999.99    1.72    0.00000     0.00  LINEAR    1.37964E+02     6.30    0.00000E+00     0.00
   65.00   315.00      -9.20 -999.99   -9.20    0.00000     0.00  LINEAR    3.92550E+01     5.75    0.00000E+00     0.00
   70.00   315.00     -29.54 -999.99  -29.54    0.00000     0.00  LINEAR    3.77519E+00   -22.69    0.00000E+00     0.00
   75.00   315.00     -36.23 -999.99  -36.23    0.00000     0.00  LINEAR    1.74694E+00  -170.58    0.00000E+00     0.00
   80.00   315.00     -19.75 -999.99  -19.75    0.00000     0.00  LINEAR    1.16591E+01     4.49    0.00000E+00     0.00
   85.00   315.00      -9.27 -999.99   -9.27    0.00000     0.00  LINEAR    3.89252E+01     9.32    0.00000E+00     0.00
   90.00   315.00     -15.44 -999.99  -15.44    0.00000     0.00  LINEAR    1.91421E+01    32.51    0.00000E+00     0.00
    0.00   320.00    -999.99 -999.99 -999.99    0.00000     0.00            0.00000E+00     0.00    0.00000E+00     0.00
    5.00   320.00     -20.27 -999.99  -20.27    0.00000     0.00  LINEAR    1.09740E+01  -179.88    0.00000E+00     0.00
   10.00   320.00      -4.81 -999.99   -4.81    0.00000     0.00  LINEAR    6.50716E+01    -0.11    0.00000E+00     0.00
   15.00   320.00       2.56 -999.99    2.56    0.00000     0.00  LINEAR    1.52023E+02   179.76    0.00000E+00     0.00
   20.00   320.00      -9.83 -999.99   -9.83    0.00000     0.00  LINEAR    3.65085E+01   178.66    0.00000E+00     0.00
   25.00   320.00     -23.44 -999.99  -23.44    0.00000     0.00  LINEAR    7.62325E+00  -176.43    0.00000E+00     0.00
   30.00   320.00     -10.84 -999.99  -10.84    0.00000     0.00  LINEAR    3.24884E+01     0.71    0.00000E+00     0.00
   35.00   320.00      -1.04 -999.99   -1.04    0.00000     0.00  LINEAR    1.00493E+02     0.89    0.00000E+00     0.00
   40.00   320.00     -31.96 -999.99  -31.96    0.00000     0.00  LINEAR    2.85804E+00  -126.17    0.00000E+00     0.00
   45.00   320.00       3.68 -999.99    3.68    0.00000     0.00  LINEAR    1.72877E+02     0.01    0.00000E+00     0.00
   50.00   320.00      -5.05 -999.99   -5.05    0.00000     0.00  LINEAR    6.33279E+01     5.14    0.00000E+00     0.00
   55.00   320.00     -19.92 -999.99  -19.92    0.00000     0.00  LINEAR    1.14210E+01   138.37    0.00000E+00     0.00
   60.00   320.00     -17.17 -999.99  -17.17    0.00000     0.00  LINEAR    1.56750E+01    15.56    0.00000E+00     0.00
   65.00   320.00     -16.87 -999.99  -16.87    0.00000     0.00  LINEAR    1.62349E+01  -169.03    0.00000E+00     0.00
   70.00   320.00     -22.38 -999.99  -22.38    0.00000     0.00  LINEAR    8.61102E+00   -17.22    0.00000E+00     0.00
   75.00   320.00     -19.24 -999.99  -19.24    0.00000     0.00  LINEAR    1.23549E+01    -1.64    0.00000E+00     0.00
   80.00   320.00     -27.21 -999.99  -27.21    0.00000     0.00  LINEAR    4.93634E+00  -162.11    0.00000E+00     0.00
   85.00   320.00     -25.29 -999.99  -25.29    0.00000     0.00  LINEAR    6.16152E+00  -164.34    0.00000E+00     0.00
   90.00   320.00     -35.85 -999.99  -35.85    0.00000     0.00  LINEAR    1.82481E+00  -153.22    0.00000E+00     0.00
    0.00   325.00    -999.99 -999.99 -999.99    0.00000     0.00            0.00000E+00     0.00    0.00000E+00     0.00
    5.00   325.00     -29.99 -999.99  -29.99    0.00000     0.00  LINEAR    3.58638E+00  -179.66    0.00000E+00     0.00
   10.00   325.00       0.47 -999.99    0.47    0.00000     0.00  LINEAR    1.19518E+02    -0.05    0.00000E+00     0.00
   15.00   325.00      -3.94 -999.99   -3.94    0.00000     0.00  LINEAR    7.19058E+01   179.56    0.00000E+00     0.00
   20.00   325.00     -15.45 -999.99  -15.45    0.00000     0.00  LINEAR    1.91226E+01     0.82    0.00000E+00     0.00
   25.00   325.00     -10.20 -999.99  -10.20    0.00000     0.00  LINEAR    3.50065E+01    -1.56    0.00000E+00     0.00
   30.00   325.00     -10.13 -999.99  -10.13    0.00000     0.00  LINEAR    3.52542E+01     1.10    0.00000E+00     0.00
   35.00   325.00     -21.50 -999.99  -21.50    0.00000     0.00  LINEAR    9.52742E+00    -2.68    0.00000E+00     0.00
   40.00   325.00     -22.46 -999.99  -22.46    0.00000     0.00  LINEAR    8.53420E+00  -142.27    0.00000E+00     0.00
   45.00   325.00       7.41 -999.99    7.41    0.00000     0.00  LINEAR    2.65807E+02     0.40    0.00000E+00     0.00
   50.00   325.00      -1.76 -999.99   -1.76    0.00000     0.00  LINEAR    9.24553E+01     4.41    0.00000E+00     0.00
   55.00   325.00     -23.50 -999.99  -23.50    0.00000     0.00  LINEAR    7.56563E+00   132.06    0.00000E+00     0.00
   60.00   325.00      -8.44 -999.99   -8.44    0.00000     0.00  LINEAR    4.28434E+01     7.06    0.00000E+00     0.00
   65.00   325.00     -23.92 -999.99  -23.92    0.00000     0.00  LINEAR    7.20802E+00    11.91    0.00000E+00     0.00
   70.00   325.00     -48.32 -999.99  -48.32    0.00000     0.00  LINEAR    4.34291E-01    62.98    0.00000E+00     0.00
   75.00   325.00     -27.33 -999.99  -27.33    0.00000     0.00  LINEAR    4.86962E+00   169.16    0.00000E+00     0.00
   80.00   325.00     -23.65 -999.99  -23.65    0.00000     0.00  LINEAR    7.43509E+00    17.73    0.00000E+00     0.00
   85.00   325.00     -12.77 -999.99  -12.77    0.00000     0.00  LINEAR    2.60388E+01    13.28    0.00000E+00     0.00
   90.00   325.00     -20.18 -999.99  -20.18    0.00000     0.00  LINEAR    1.10862E+01    39.99    0.00000E+00     0.00
    0.00   330.00    -999.99 -999.99 -999.99    0.00000     0.00            0.00000E+00     0.00    0.00000E+00     0.00
    5.00   330.00     -28.36 -999.99  -28.36    0.00000     0.00  LINEAR    4.32514E+00    -0.23    0.00000E+00     0.00
   10.00   330.00       4.10 -999.99    4.10    0.00000     0.00  LINEAR    1.81592E+02    -0.03    0.00000E+00     0.00
   15.00   330.00     -21.29 -999.99  -21.29    0.00000     0.00  LINEAR    9.75712E+00     2.60    0.00000E+00     0.00
   20.00   330.00      -7.93 -999.99   -7.93    0.00000     0.00  LINEAR    4.54384E+01    -0.12    0.00000E+00     0.00
   25.00   330.00     -16.26 -999.99  -16.26    0.00000     0.00  LINEAR    1.74092E+01    -2.65    0.00000E+00     0.00
   30.00   330.00     -11.85 -999.99  -11.85    0.00000     0.00  LINEAR    2.89320E+01   178.28    0.00000E+00     0.00
   35.00   330.00     -12.54 -999.99  -12.54    0.00000     0.00  LINEAR    2.67188E+01  -173.87    0.00000E+00     0.00
   40.00   330.00     -18.87 -999.99  -18.87    0.00000     0.00  LINEAR    1.28960E+01  -145.44    0.00000E+00     0.00
   45.00   330.00       3.60 -999.99    3.60    0.00000     0.00  LINEAR    1.71439E+02     0.43    0.00000E+00     0.00
   50.00   330.00     -13.94 -999.99  -13.94    0.00000     0.00  LINEAR    2.27374E+01    12.63    0.00000E+00     0.00
   55.00   330.00      -6.52 -999.99   -6.52    0.00000     0.00  LINEAR    5.34537E+01     6.70    0.00000E+00     0.00
   60.00   330.00      -3.53 -999.99   -3.53    0.00000     0.00  LINEAR    7.54211E+01     4.09    0.00000E+00     0.00
   65.00   330.00     -16.87 -999.99  -16.87    0.00000     0.00  LINEAR    1.62433E+01  -151.23    0.00000E+00     0.00
   70.00   330.00     -13.20 -999.99  -13.20    0.00000     0.00  LINEAR    2.47679E+01   -25.18    0.00000E+00     0.00
   75.00   330.00     -13.05 -999.99  -13.05    0.00000     0.00  LINEAR    2.52076E+01    -6.01    0.00000E+00     0.00
   80.00   330.00     -17.36 -999.99  -17.36    0.00000     0.00  LINEAR    1.53416E+01   177.97    0.00000E+00     0.00
   85.00   330.00     -15.80 -999.99  -15.80    0.00000     0.00  LINEAR    1.83625E+01  -179.93    0.00000E+00     0.00
   90.00   330.00     -26.11 -999.99  -26.11    0.00000     0.00  LINEAR    5.60176E+00  -166.03    0.00000E+00     0.00
    0.00   335.00    -999.99 -999.99 -999.99    0.00000     0.00            0.00000E+00     0.00    0.00000E+00     0.00
    5.00   335.00     -19.30 -999.99  -19.30    0.00000     0.00  LINEAR    1.22718E+01    -0.06    0.00000E+00     0.00
   10.00   335.00       6.72 -999.99    6.72    0.00000     0.00  LINEAR    2.45471E+02    -0.02    0.00000E+00     0.00
   15.00   335.00      -3.63 -999.99   -3.63    0.00000     0.00  LINEAR    7.45260E+01     0.27    0.00000E+00     0.00
   20.00   335.00     -13.50 -999.99  -13.50    0.00000     0.00  LINEAR    2.39284E+01    -0.47    0.00000E+00     0.00
   25.00   335.00     -15.08 -999.99  -15.08    0.00000     0.00  LINEAR    1.99438E+01  -179.01    0.00000E+00     0.00
   30.00   335.00      -7.99 -999.99   -7.99    0.00000     0.00  LINEAR    4.51235E+01   179.18    0.00000E+00     0.00
   35.00   335.00      -7.11 -999.99   -7.11    0.00000     0.00  LINEAR    4.99307E+01    -5.92    0.00000E+00     0.00
   40.00   335.00     -18.07 -999.99  -18.07    0.00000     0.00  LINEAR    1.41465E+01  -142.11    0.00000E+00     0.00
   45.00   335.00     -11.24 -999.99  -11.24    0.00000     0.00  LINEAR    3.10366E+01    -1.23    0.00000E+00     0.00
   50.00   335.00     -16.20 -999.99  -16.20    0.00000     0.00  LINEAR    1.75411E+01   174.09    0.00000E+00     0.00
   55.00   335.00     -10.41 -999.99  -10.41    0.00000     0.00  LINEAR    3.41359E+01     3.60    0.00000E+00     0.00
   60.00   335.00      -9.62 -999.99   -9.62    0.00000     0.00  LINEAR    3.74147E+01  -170.95    0.00000E+00     0.00
   65.00   335.00      -3.38 -999.99   -3.38    0.00000     0.00  LINEAR    7.67581E+01  -164.32    0.00000E+00     0.00
   70.00   335.00     -13.07 -999.99  -13.07    0.00000     0.00  LINEAR    2.51469E+01   -30.53    0.00000E+00     0.00
   75.00   335.00     -22.60 -999.99  -22.60    0.00000     0.00  LINEAR    8.39071E+00   168.83    0.00000E+00     0.00
   80.00   335.00     -10.22 -999.99  -10.22    0.00000     0.00  LINEAR    3.49153E+01    20.60    0.00000E+00     0.00
   85.00   335.00       2.12 -999.99    2.12    0.00000     0.00  LINEAR    1.44481E+02    13.32    0.00000E+00     0.00
   90.00   335.00      -4.58 -999.99   -4.58    0.00000     0.00  LINEAR    6.68108E+01    39.88    0.00000E+00     0.00
    0.00   340.00    -999.99 -999.99 -999.99    0.00000     0.00            0.00000E+00     0.00    0.00000E+00     0.00
    5.00   340.00     -15.18 -999.99  -15.18    0.00000     0.00  LINEAR    1.97270E+01    -0.02    0.00000E+00     0.00
   10.00   340.00       8.62 -999.99    8.62    0.00000     0.00  LINEAR    3.05423E+02    -0.01    0.00000E+00     0.00
   15.00   340.00       0.03 -999.99    0.03    0.00000     0.00  LINEAR    1.13627E+02     0.15    0.00000E+00     0.00
   20.00   340.00     -11.35 -999.99  -11.35    0.00000     0.00  LINEAR    3.06675E+01  -179.81    0.00000E+00     0.00
   25.00   340.00     -17.28 -999.99  -17.28    0.00000     0.00  LINEAR    1.54872E+01   179.76    0.00000E+00     0.00
   30.00   340.00     -25.05 -999.99  -25.05    0.00000     0.00  LINEAR    6.32844E+00  -179.43    0.00000E+00     0.00
   35.00   340.00       0.47 -999.99    0.47    0.00000     0.00  LINEAR    1.19482E+02    -3.41    0.00000E+00     0.00
   40.00   340.00     -18.76 -999.99  -18.76    0.00000     0.00  LINEAR    1.30539E+01  -137.09    0.00000E+00     0.00
   45.00   340.00     -21.27 -999.99  -21.27    0.00000     0.00  LINEAR    9.78720E+00  -173.39    0.00000E+00     0.00
   50.00   340.00     -28.48 -999.99  -28.48    0.00000     0.00  LINEAR    4.26713E+00     0.88    0.00000E+00     0.00
   55.00   340.00     -40.89 -999.99  -40.89    0.00000     0.00  LINEAR    1.02166E+00   -56.18    0.00000E+00     0.00
   60.00   340.00     -10.52 -999.99  -10.52    0.00000     0.00  LINEAR    3.37093E+01  -173.57    0.00000E+00     0.00
   65.00   340.00     -13.85 -999.99  -13.85    0.00000     0.00  LINEAR    2.29901E+01  -161.44    0.00000E+00     0.00
   70.00   340.00     -25.80 -999.99  -25.80    0.00000     0.00  LINEAR    5.80500E+00   163.86    0.00000E+00     0.00
   75.00   340.00      -5.96 -999.99   -5.96    0.00000     0.00  LINEAR    5.70342E+01   172.16    0.00000E+00     0.00
   80.00   340.00      -3.80 -999.99   -3.80    0.00000     0.00  LINEAR    7.31206E+01    14.59    0.00000E+00     0.00
   85.00   340.00       6.17 -999.99    6.17    0.00000     0.00  LINEAR    2.30264E+02    12.38    0.00000E+00     0.00
   90.00   340.00      -0.84 -999.99   -0.84    0.00000     0.00  LINEAR    1.02768E+02    39.04    0.00000E+00     0.00
    0.00   345.00    -999.99 -999.99 -999.99    0.00000     0.00            0.00000E+00     0.00    0.00000E+00     0.00
    5.00   345.00     -12.72 -999.99  -12.72    0.00000     0.00  LINEAR    2.61725E+01    -0.01    0.00000E+00     0.00
   10.00   345.00       9.96 -999.99    9.96    0.00000     0.00  LINEAR    3.56594E+02     0.00    0.00000E+00     0.00
   15.00   345.00       1.10 -999.99    1.10    0.00000     0.00  LINEAR    1.28584E+02     0.13    0.00000E+00     0.00
   20.00   345.00      -1.91 -999.99   -1.91    0.00000     0.00  LINEAR    9.09057E+01   179.95    0.00000E+00     0.00
   25.00   345.00      -7.53 -999.99   -7.53    0.00000     0.00  LINEAR    4.75892E+01     0.29    0.00000E+00     0.00
   30.00   345.00     -34.66 -999.99  -34.66    0.00000     0.00  LINEAR    2.09301E+00  -150.83    0.00000E+00     0.00
   35.00   345.00      -6.84 -999.99   -6.84    0.00000     0.00  LINEAR    5.14992E+01    -9.52    0.00000E+00     0.00
   40.00   345.00     -20.12 -999.99  -20.12    0.00000     0.00  LINEAR    1.11736E+01  -136.46    0.00000E+00     0.00
   45.00   345.00     -23.65 -999.99  -23.65    0.00000     0.00  LINEAR    7.43879E+00    -1.54    0.00000E+00     0.00
   50.00   345.00     -17.06 -999.99  -17.06    0.00000     0.00  LINEAR    1.58798E+01    -1.17    0.00000E+00     0.00
   55.00   345.00     -21.58 -999.99  -21.58    0.00000     0.00  LINEAR    9.44393E+00     5.25    0.00000E+00     0.00
   60.00   345.00      -9.40 -999.99   -9.40    0.00000     0.00  LINEAR    3.83456E+01     8.35    0.00000E+00     0.00
   65.00   345.00     -33.84 -999.99  -33.84    0.00000     0.00  LINEAR    2.30227E+00   105.35    0.00000E+00     0.00
   70.00   345.00     -21.95 -999.99  -21.95    0.00000     0.00  LINEAR    9.04255E+00     2.34    0.00000E+00     0.00
   75.00   345.00     -13.75 -999.99  -13.75    0.00000     0.00  LINEAR    2.32410E+01    -0.60    0.00000E+00     0.00
   80.00   345.00     -19.19 -999.99  -19.19    0.00000     0.00  LINEAR    1.24299E+01  -144.14    0.00000E+00     0.00
   85.00   345.00     -12.28 -999.99  -12.28    0.00000     0.00  LINEAR    2.75380E+01  -156.39    0.00000E+00     0.00
   90.00   345.00     -23.91 -999.99  -23.91    0.00000     0.00  LINEAR    7.21508E+00  -134.92    0.00000E+00     0.00
    0.00   350.00    -999.99 -999.99 -999.99    0.00000     0.00            0.00000E+00     0.00    0.00000E+00     0.00
    5.00   350.00     -11.21 -999.99  -11.21    0.00000     0.00  LINEAR    3.11468E+01     0.00    0.00000E+00     0.00
   10.00   350.00      10.86 -999.99   10.86    0.00000     0.00  LINEAR    3.95388E+02     0.00    0.00000E+00     0.00
   15.00   350.00       1.06 -999.99    1.06    0.00000     0.00  LINEAR    1.27881E+02     0.13    0.00000E+00     0.00
   20.00   350.00       1.64 -999.99    1.64    0.00000     0.00  LINEAR    1.36764E+02   179.90    0.00000E+00     0.00
   25.00   350.00       1.72 -999.99    1.72    0.00000     0.00  LINEAR    1.38073E+02     0.08    0.00000E+00     0.00
   30.00   350.00      -2.37 -999.99   -2.37    0.00000     0.00  LINEAR    8.61741E+01  -178.74    0.00000E+00     0.00
   35.00   350.00       2.42 -999.99    2.42    0.00000     0.00  LINEAR    1.49670E+02  -176.44    0.00000E+00     0.00
   40.00   350.00     -21.37 -999.99  -21.37    0.00000     0.00  LINEAR    9.66865E+00  -142.64    0.00000E+00     0.00
   45.00   350.00     -29.65 -999.99  -29.65    0.00000     0.00  LINEAR    3.72712E+00   175.79    0.00000E+00     0.00
   50.00   350.00     -35.22 -999.99  -35.22    0.00000     0.00  LINEAR    1.96285E+00   -14.96    0.00000E+00     0.00
   55.00   350.00     -29.46 -999.99  -29.46    0.00000     0.00  LINEAR    3.80839E+00    13.58    0.00000E+00     0.00
   60.00   350.00     -17.91 -999.99  -17.91    0.00000     0.00  LINEAR    1.44065E+01    12.21    0.00000E+00     0.00
   65.00   350.00     -17.07 -999.99  -17.07    0.00000     0.00  LINEAR    1.58665E+01   179.46    0.00000E+00     0.00
   70.00   350.00     -18.42 -999.99  -18.42    0.00000     0.00  LINEAR    1.35759E+01    -4.51    0.00000E+00     0.00
   75.00   350.00      -7.50 -999.99   -7.50    0.00000     0.00  LINEAR    4.77371E+01    -2.97    0.00000E+00     0.00
   80.00   350.00      -9.76 -999.99   -9.76    0.00000     0.00  LINEAR    3.67971E+01  -155.57    0.00000E+00     0.00
   85.00   350.00      -0.87 -999.99   -0.87    0.00000     0.00  LINEAR    1.02407E+02  -163.13    0.00000E+00     0.00
   90.00   350.00      -9.06 -999.99   -9.06    0.00000     0.00  LINEAR    3.99098E+01  -138.43    0.00000E+00     0.00
    0.00   355.00    -999.99 -999.99 -999.99    0.00000     0.00            0.00000E+00     0.00    0.00000E+00     0.00
    5.00   355.00     -10.38 -999.99  -10.38    0.00000     0.00  LINEAR    3.42865E+01     0.01    0.00000E+00     0.00
   10.00   355.00      11.38 -999.99   11.38    0.00000     0.00  LINEAR    4.19485E+02     0.00    0.00000E+00     0.00
   15.00   355.00       0.65 -999.99    0.65    0.00000     0.00  LINEAR    1.21998E+02     0.14    0.00000E+00     0.00
   20.00   355.00       3.13 -999.99    3.13    0.00000     0.00  LINEAR    1.62301E+02   179.87    0.00000E+00     0.00
   25.00   355.00       5.44 -999.99    5.44    0.00000     0.00  LINEAR    2.11840E+02     0.03    0.00000E+00     0.00
   30.00   355.00       5.29 -999.99    5.29    0.00000     0.00  LINEAR    2.08294E+02  -179.33    0.00000E+00     0.00
   35.00   355.00       9.99 -999.99    9.99    0.00000     0.00  LINEAR    3.57707E+02  -178.46    0.00000E+00     0.00
   40.00   355.00     -21.97 -999.99  -21.97    0.00000     0.00  LINEAR    9.02270E+00  -150.59    0.00000E+00     0.00
   45.00   355.00      -8.26 -999.99   -8.26    0.00000     0.00  LINEAR    4.37456E+01  -179.78    0.00000E+00     0.00
   50.00   355.00     -22.75 -999.99  -22.75    0.00000     0.00  LINEAR    8.24913E+00  -173.66    0.00000E+00     0.00
   55.00   355.00     -10.41 -999.99  -10.41    0.00000     0.00  LINEAR    3.41523E+01  -175.01    0.00000E+00     0.00
   60.00   355.00     -12.41 -999.99  -12.41    0.00000     0.00  LINEAR    2.71377E+01  -169.08    0.00000E+00     0.00
   65.00   355.00      -4.47 -999.99   -4.47    0.00000     0.00  LINEAR    6.77018E+01     7.83    0.00000E+00     0.00
   70.00   355.00      -8.08 -999.99   -8.08    0.00000     0.00  LINEAR    4.46569E+01   154.11    0.00000E+00     0.00
   75.00   355.00      -1.75 -999.99   -1.75    0.00000     0.00  LINEAR    9.26084E+01   171.84    0.00000E+00     0.00
   80.00   355.00      -3.79 -999.99   -3.79    0.00000     0.00  LINEAR    7.31790E+01    13.64    0.00000E+00     0.00
   85.00   355.00       3.66 -999.99    3.66    0.00000     0.00  LINEAR    1.72553E+02    12.42    0.00000E+00     0.00
   90.00   355.00      -3.88 -999.99   -3.88    0.00000     0.00  LINEAR    7.24735E+01    40.08    0.00000E+00     0.00






 ***** DATA CARD NO. 16   EN   0     0     0     0  0.00000E+00  0.00000E+00  0.00000E+00  0.00000E+00  0.00000E+00  0.00000E+00

 RUN TIME =     0.172
