1



                                 *********************************************

                                    NUMERICAL ELECTROMAGNETICS CODE (NEC-2D)

                                 *********************************************




                                     - - - - COMMENTS - - - -


                                                                                                     
                                                                                                     




                                 - - - STRUCTURE SPECIFICATION - - -

                                     COORDINATES MUST BE INPUT IN
                                     METERS OR BE SCALED TO METERS
                                     BEFORE STRUCTURE INPUT IS ENDED


  WIRE                                                                               NO. OF    FIRST  LAST     TAG
  NO.        X1         Y1         Z1          X2         Y2         Z2      RADIUS   SEG.     SEG.   SEG.     NO.
     1  -10.00000  -10.00000    0.35000   -11.75820  -11.77730    2.70000    0.00100     25        1    25     101
     2  -11.75820  -11.77730    2.70000   -10.00000  -10.00000   15.20000    0.00100     50       26    75     102
     3  -10.00000  -10.00000    0.35000   -12.50000  -10.01350    2.70000    0.00100     25       76   100     103
     4  -12.50000  -10.01350    2.70000   -10.00000  -10.00000   15.20000    0.00100     50      101   150     104
     5  -10.00000  -10.00000    0.35000   -11.77980   -7.77734    2.70000    0.00100     25      151   175     105
     6  -11.77980   -7.77734    2.70000   -10.00000  -10.00000   15.20000    0.00100     50      176   225     106
     7  -10.00000  -10.00000    0.35000   -10.01350   -7.50004    2.70000    0.00100     25      226   250     107
     8  -10.01350   -7.50004    2.70000   -10.00000  -10.00000   15.20000    0.00100     50      251   300     108
     9  -10.00000  -10.00000    0.35000    -7.77985   -7.75575    2.70000    0.00100     25      301   325     109
    10   -7.77985   -7.75575    2.70000   -10.00000  -10.00000   15.20000    0.00100     50      326   375     110
    11  -10.00000  -10.00000    0.35000    -7.50004   -9.98650    2.70000    0.00100     25      376   400     111
    12   -7.50004   -9.98650    2.70000   -10.00000  -10.00000   15.20000    0.00100     50      401   450     112
    13  -10.00000  -10.00000    0.35000    -7.75826  -11.75570    2.70000    0.00100     25      451   475     113
    14   -7.75826  -11.75570    2.70000   -10.00000  -10.00000   15.20000    0.00100     50      476   525     114
    15  -10.00000  -10.00000    0.35000    -9.98650  -12.50000    2.70000    0.00100     25      526   550     115
    16   -9.98650  -12.50000    2.70000   -10.00000  -10.00000   15.20000    0.00100     50      551   600     116
    17  -10.00000  -10.00000    0.20000   -10.00000  -10.00000    0.35000    0.00100      3      601   603     117
    18  -10.00000  -10.00000    0.20000    -9.99892  -10.20000    0.20000    0.00100      4      604   607     118
    19   -9.99892  -10.20000    0.20000    -9.91903  -24.99980    0.20000    0.00100     50      608   657     119
    20  -10.00000  -10.00000    0.20000   -10.06080  -10.19050    0.20000    0.00100      4      658   661     120
    21  -10.06080  -10.19050    0.20000   -14.55820  -24.29070    0.20000    0.00100     50      662   711     121
    22  -10.00000  -10.00000    0.20000   -10.11670  -10.16240    0.20000    0.00100      4      712   715     122
    23  -10.11670  -10.16240    0.20000   -18.75110  -22.18270    0.20000    0.00100     50      716   765     123
    24  -10.00000  -10.00000    0.20000   -10.16120  -10.11840    0.20000    0.00100      4      766   769     124
    25  -10.16120  -10.11840    0.20000   -22.07130  -21.88210    0.20000    0.00100     50      770   819     125
    26  -10.00000  -10.00000    0.20000   -10.18990  -10.06280    0.20000    0.00100      4      820   823     126
    27  -10.18990  -10.06280    0.20000   -24.24060  -14.71220    0.20000    0.00100     50      824   873     127
    28  -10.00000  -10.00000    0.20000   -10.20000  -10.00110    0.20000    0.00100      4      874   877     128
    29  -10.20000  -10.00110    0.20000   -24.99980  -10.08100    0.20000    0.00100     50      878   927     129
    30   10.00000  -10.00000    0.35000    11.77730  -11.75820    2.70000    0.00100     25      928   952     130
    31   11.77730  -11.75820    2.70000    10.00000  -10.00000   15.20000    0.00100     50      953  1002     131
    32   10.00000  -10.00000    0.35000    10.01350  -12.50000    2.70000    0.00100     25     1003  1027     132
    33   10.01350  -12.50000    2.70000    10.00000  -10.00000   15.20000    0.00100     50     1028  1077     133
    34   10.00000  -10.00000    0.35000     7.77734  -11.77980    2.70000    0.00100     25     1078  1102     134
    35    7.77734  -11.77980    2.70000    10.00000  -10.00000   15.20000    0.00100     50     1103  1152     135
    36   10.00000  -10.00000    0.35000     7.50004  -10.01350    2.70000    0.00100     25     1153  1177     136
    37    7.50004  -10.01350    2.70000    10.00000  -10.00000   15.20000    0.00100     50     1178  1227     137
    38   10.00000  -10.00000    0.35000     7.75575   -7.77985    2.70000    0.00100     25     1228  1252     138
    39    7.75575   -7.77985    2.70000    10.00000  -10.00000   15.20000    0.00100     50     1253  1302     139
    40   10.00000  -10.00000    0.35000     9.98650   -7.50004    2.70000    0.00100     25     1303  1327     140
    41    9.98650   -7.50004    2.70000    10.00000  -10.00000   15.20000    0.00100     50     1328  1377     141
    42   10.00000  -10.00000    0.35000    11.75570   -7.75826    2.70000    0.00100     25     1378  1402     142
    43   11.75570   -7.75826    2.70000    10.00000  -10.00000   15.20000    0.00100     50     1403  1452     143
    44   10.00000  -10.00000    0.35000    12.50000   -9.98650    2.70000    0.00100     25     1453  1477     144
    45   12.50000   -9.98650    2.70000    10.00000  -10.00000   15.20000    0.00100     50     1478  1527     145
    46   10.00000  -10.00000    0.20000    10.00000  -10.00000    0.35000    0.00100      3     1528  1530     146
    47   10.00000  -10.00000    0.20000    10.20000   -9.99892    0.20000    0.00100      4     1531  1534     147
    48   10.20000   -9.99892    0.20000    24.99980   -9.91903    0.20000    0.00100     50     1535  1584     148
    49   10.00000  -10.00000    0.20000    10.19050  -10.06080    0.20000    0.00100      4     1585  1588     149
    50   10.19050  -10.06080    0.20000    24.29070  -14.55820    0.20000    0.00100     50     1589  1638     150
    51   10.00000  -10.00000    0.20000    10.16240  -10.11670    0.20000    0.00100      4     1639  1642     151
    52   10.16240  -10.11670    0.20000    22.18270  -18.75110    0.20000    0.00100     50     1643  1692     152
    53   10.00000  -10.00000    0.20000    10.11840  -10.16120    0.20000    0.00100      4     1693  1696     153
    54   10.11840  -10.16120    0.20000    21.88210  -22.07130    0.20000    0.00100     50     1697  1746     154
    55   10.00000  -10.00000    0.20000    10.06280  -10.18990    0.20000    0.00100      4     1747  1750     155
    56   10.06280  -10.18990    0.20000    14.71220  -24.24060    0.20000    0.00100     50     1751  1800     156
    57   10.00000  -10.00000    0.20000    10.00110  -10.20000    0.20000    0.00100      4     1801  1804     157
    58   10.00110  -10.20000    0.20000    10.08100  -24.99980    0.20000    0.00100     50     1805  1854     158
    59  -10.00000   10.00000    0.35000   -11.77730   11.75820    2.70000    0.00100     25     1855  1879     159
    60  -11.77730   11.75820    2.70000   -10.00000   10.00000   15.20000    0.00100     50     1880  1929     160
    61  -10.00000   10.00000    0.35000   -10.01350   12.50000    2.70000    0.00100     25     1930  1954     161
    62  -10.01350   12.50000    2.70000   -10.00000   10.00000   15.20000    0.00100     50     1955  2004     162
    63  -10.00000   10.00000    0.35000    -7.77734   11.77980    2.70000    0.00100     25     2005  2029     163
    64   -7.77734   11.77980    2.70000   -10.00000   10.00000   15.20000    0.00100     50     2030  2079     164
    65  -10.00000   10.00000    0.35000    -7.50004   10.01350    2.70000    0.00100     25     2080  2104     165
    66   -7.50004   10.01350    2.70000   -10.00000   10.00000   15.20000    0.00100     50     2105  2154     166
    67  -10.00000   10.00000    0.35000    -7.75575    7.77985    2.70000    0.00100     25     2155  2179     167
    68   -7.75575    7.77985    2.70000   -10.00000   10.00000   15.20000    0.00100     50     2180  2229     168
    69  -10.00000   10.00000    0.35000    -9.98650    7.50004    2.70000    0.00100     25     2230  2254     169
    70   -9.98650    7.50004    2.70000   -10.00000   10.00000   15.20000    0.00100     50     2255  2304     170
    71  -10.00000   10.00000    0.35000   -11.75570    7.75826    2.70000    0.00100     25     2305  2329     171
    72  -11.75570    7.75826    2.70000   -10.00000   10.00000   15.20000    0.00100     50     2330  2379     172
    73  -10.00000   10.00000    0.35000   -12.50000    9.98650    2.70000    0.00100     25     2380  2404     173
    74  -12.50000    9.98650    2.70000   -10.00000   10.00000   15.20000    0.00100     50     2405  2454     174
    75  -10.00000   10.00000    0.20000   -10.00000   10.00000    0.35000    0.00100      3     2455  2457     175
    76  -10.00000   10.00000    0.20000   -10.20000    9.99892    0.20000    0.00100      4     2458  2461     176
    77  -10.20000    9.99892    0.20000   -24.99980    9.91903    0.20000    0.00100     50     2462  2511     177
    78  -10.00000   10.00000    0.20000   -10.19050   10.06080    0.20000    0.00100      4     2512  2515     178
    79  -10.19050   10.06080    0.20000   -24.29070   14.55820    0.20000    0.00100     50     2516  2565     179
    80  -10.00000   10.00000    0.20000   -10.16240   10.11670    0.20000    0.00100      4     2566  2569     180
    81  -10.16240   10.11670    0.20000   -22.18270   18.75110    0.20000    0.00100     50     2570  2619     181
    82  -10.00000   10.00000    0.20000   -10.11840   10.16120    0.20000    0.00100      4     2620  2623     182
    83  -10.11840   10.16120    0.20000   -21.88210   22.07130    0.20000    0.00100     50     2624  2673     183
    84  -10.00000   10.00000    0.20000   -10.06280   10.18990    0.20000    0.00100      4     2674  2677     184
    85  -10.06280   10.18990    0.20000   -14.71220   24.24060    0.20000    0.00100     50     2678  2727     185
    86  -10.00000   10.00000    0.20000   -10.00110   10.20000    0.20000    0.00100      4     2728  2731     186
    87  -10.00110   10.20000    0.20000   -10.08100   24.99980    0.20000    0.00100     50     2732  2781     187
    88   10.00000   10.00000    0.35000    11.75820   11.77730    2.70000    0.00100     25     2782  2806     188
    89   11.75820   11.77730    2.70000    10.00000   10.00000   15.20000    0.00100     50     2807  2856     189
    90   10.00000   10.00000    0.35000    12.50000   10.01350    2.70000    0.00100     25     2857  2881     190
    91   12.50000   10.01350    2.70000    10.00000   10.00000   15.20000    0.00100     50     2882  2931     191
    92   10.00000   10.00000    0.35000    11.77980    7.77734    2.70000    0.00100     25     2932  2956     192
    93   11.77980    7.77734    2.70000    10.00000   10.00000   15.20000    0.00100     50     2957  3006     193
    94   10.00000   10.00000    0.35000    10.01350    7.50004    2.70000    0.00100     25     3007  3031     194
    95   10.01350    7.50004    2.70000    10.00000   10.00000   15.20000    0.00100     50     3032  3081     195
    96   10.00000   10.00000    0.35000     7.77985    7.75575    2.70000    0.00100     25     3082  3106     196
    97    7.77985    7.75575    2.70000    10.00000   10.00000   15.20000    0.00100     50     3107  3156     197
    98   10.00000   10.00000    0.35000     7.50004    9.98650    2.70000    0.00100     25     3157  3181     198
    99    7.50004    9.98650    2.70000    10.00000   10.00000   15.20000    0.00100     50     3182  3231     199
   100   10.00000   10.00000    0.35000     7.75826   11.75570    2.70000    0.00100     25     3232  3256     200
   101    7.75826   11.75570    2.70000    10.00000   10.00000   15.20000    0.00100     50     3257  3306     201
   102   10.00000   10.00000    0.35000     9.98650   12.50000    2.70000    0.00100     25     3307  3331     202
   103    9.98650   12.50000    2.70000    10.00000   10.00000   15.20000    0.00100     50     3332  3381     203
   104   10.00000   10.00000    0.20000    10.00000   10.00000    0.35000    0.00100      3     3382  3384     204
   105   10.00000   10.00000    0.20000     9.99892   10.20000    0.20000    0.00100      4     3385  3388     205
   106    9.99892   10.20000    0.20000     9.91903   24.99980    0.20000    0.00100     50     3389  3438     206
   107   10.00000   10.00000    0.20000    10.06080   10.19050    0.20000    0.00100      4     3439  3442     207
   108   10.06080   10.19050    0.20000    14.55820   24.29070    0.20000    0.00100     50     3443  3492     208
   109   10.00000   10.00000    0.20000    10.11670   10.16240    0.20000    0.00100      4     3493  3496     209
   110   10.11670   10.16240    0.20000    18.75110   22.18270    0.20000    0.00100     50     3497  3546     210
   111   10.00000   10.00000    0.20000    10.16120   10.11840    0.20000    0.00100      4     3547  3550     211
   112   10.16120   10.11840    0.20000    22.07130   21.88210    0.20000    0.00100     50     3551  3600     212
   113   10.00000   10.00000    0.20000    10.18990   10.06280    0.20000    0.00100      4     3601  3604     213
   114   10.18990   10.06280    0.20000    24.24060   14.71220    0.20000    0.00100     50     3605  3654     214
   115   10.00000   10.00000    0.20000    10.20000   10.00110    0.20000    0.00100      4     3655  3658     215
   116   10.20000   10.00110    0.20000    24.99980   10.08100    0.20000    0.00100     50     3659  3708     216

   GROUND PLANE SPECIFIED.

   WHERE WIRE ENDS TOUCH GROUND, CURRENT WILL BE INTERPOLATED TO IMAGE IN GROUND PLANE.


   TOTAL SEGMENTS USED= 3708     NO. SEG. IN A SYMMETRIC CELL= 3708     SYMMETRY FLAG=  0


         - MULTIPLE WIRE JUNCTIONS -
 JUNCTION    SEGMENTS  (- FOR END 1, + FOR END 2)
     1        -1  -76 -151 -226 -301 -376 -451 -526  603
     2        75  150  225  300  375  450  525  600
     3      -601 -604 -658 -712 -766 -820 -874
     4      -928-1003-1078-1153-1228-1303-1378-1453 1530
     5      1002 1077 1152 1227 1302 1377 1452 1527
     6     -1528-1531-1585-1639-1693-1747-1801
     7     -1855-1930-2005-2080-2155-2230-2305-2380 2457
     8      1929 2004 2079 2154 2229 2304 2379 2454
     9     -2455-2458-2512-2566-2620-2674-2728
    10     -2782-2857-2932-3007-3082-3157-3232-3307 3384
    11      2856 2931 3006 3081 3156 3231 3306 3381
    12     -3382-3385-3439-3493-3547-3601-3655




                                 - - - - SEGMENTATION DATA - - - -

                                        COORDINATES IN METERS

                         I+ AND I- INDICATE THE SEGMENTS BEFORE AND AFTER I


  SEG.   COORDINATES OF SEG. CENTER     SEG.     ORIENTATION ANGLES    WIRE    CONNECTION DATA   TAG
  NO.       X         Y         Z       LENGTH     ALPHA     BETA      RADIUS    I-   I    I+    NO.
     1 -10.03516 -10.03555   0.39700   0.13724   43.22839-134.69047   0.00100   -76    1    2    101
     2 -10.10549 -10.10664   0.49100   0.13724   43.22839-134.69047   0.00100     1    2    3    101
     3 -10.17582 -10.17773   0.58500   0.13724   43.22839-134.69047   0.00100     2    3    4    101
     4 -10.24615 -10.24882   0.67900   0.13724   43.22839-134.69047   0.00100     3    4    5    101
     5 -10.31648 -10.31991   0.77300   0.13724   43.22839-134.69047   0.00100     4    5    6    101
     6 -10.38680 -10.39101   0.86700   0.13724   43.22839-134.69047   0.00100     5    6    7    101
     7 -10.45713 -10.46210   0.96100   0.13724   43.22839-134.69047   0.00100     6    7    8    101
     8 -10.52746 -10.53319   1.05500   0.13724   43.22839-134.69047   0.00100     7    8    9    101
     9 -10.59779 -10.60428   1.14900   0.13724   43.22839-134.69047   0.00100     8    9   10    101
    10 -10.66812 -10.67537   1.24300   0.13724   43.22839-134.69047   0.00100     9   10   11    101
    11 -10.73844 -10.74647   1.33700   0.13724   43.22839-134.69047   0.00100    10   11   12    101
    12 -10.80877 -10.81756   1.43100   0.13724   43.22839-134.69047   0.00100    11   12   13    101
    13 -10.87910 -10.88865   1.52500   0.13724   43.22839-134.69047   0.00100    12   13   14    101
    14 -10.94943 -10.95974   1.61900   0.13724   43.22839-134.69047   0.00100    13   14   15    101
    15 -11.01976 -11.03083   1.71300   0.13724   43.22839-134.69047   0.00100    14   15   16    101
    16 -11.09008 -11.10193   1.80700   0.13724   43.22839-134.69047   0.00100    15   16   17    101
    17 -11.16041 -11.17302   1.90100   0.13724   43.22839-134.69047   0.00100    16   17   18    101
    18 -11.23074 -11.24411   1.99500   0.13724   43.22839-134.69047   0.00100    17   18   19    101
    19 -11.30107 -11.31520   2.08900   0.13724   43.22839-134.69047   0.00100    18   19   20    101
    20 -11.37140 -11.38629   2.18300   0.13724   43.22839-134.69047   0.00100    19   20   21    101
    21 -11.44172 -11.45739   2.27700   0.13724   43.22839-134.69047   0.00100    20   21   22    101
    22 -11.51205 -11.52848   2.37100   0.13724   43.22839-134.69047   0.00100    21   22   23    101
    23 -11.58238 -11.59957   2.46500   0.13724   43.22839-134.69047   0.00100    22   23   24    101
    24 -11.65271 -11.67066   2.55900   0.13724   43.22839-134.69047   0.00100    23   24   25    101
    25 -11.72304 -11.74175   2.65300   0.13724   43.22839-134.69047   0.00100    24   25   26    101
    26 -11.74062 -11.75953   2.82500   0.25495   78.69001  45.30953   0.00100    25   26   27    102
    27 -11.70545 -11.72398   3.07500   0.25495   78.69001  45.30953   0.00100    26   27   28    102
    28 -11.67029 -11.68844   3.32500   0.25495   78.69001  45.30953   0.00100    27   28   29    102
    29 -11.63513 -11.65289   3.57500   0.25495   78.69001  45.30953   0.00100    28   29   30    102
    30 -11.59996 -11.61734   3.82500   0.25495   78.69001  45.30953   0.00100    29   30   31    102
    31 -11.56480 -11.58180   4.07500   0.25495   78.69001  45.30953   0.00100    30   31   32    102
    32 -11.52963 -11.54625   4.32500   0.25495   78.69001  45.30953   0.00100    31   32   33    102
    33 -11.49447 -11.51071   4.57500   0.25495   78.69001  45.30953   0.00100    32   33   34    102
    34 -11.45931 -11.47516   4.82500   0.25495   78.69001  45.30953   0.00100    33   34   35    102
    35 -11.42414 -11.43961   5.07500   0.25495   78.69001  45.30953   0.00100    34   35   36    102
    36 -11.38898 -11.40407   5.32500   0.25495   78.69001  45.30953   0.00100    35   36   37    102
    37 -11.35381 -11.36852   5.57500   0.25495   78.69001  45.30953   0.00100    36   37   38    102
    38 -11.31865 -11.33298   5.82500   0.25495   78.69001  45.30953   0.00100    37   38   39    102
    39 -11.28349 -11.29743   6.07500   0.25495   78.69001  45.30953   0.00100    38   39   40    102
    40 -11.24832 -11.26188   6.32500   0.25495   78.69001  45.30953   0.00100    39   40   41    102
    41 -11.21316 -11.22634   6.57500   0.25495   78.69001  45.30953   0.00100    40   41   42    102
    42 -11.17799 -11.19079   6.82500   0.25495   78.69001  45.30953   0.00100    41   42   43    102
    43 -11.14283 -11.15525   7.07500   0.25495   78.69001  45.30953   0.00100    42   43   44    102
    44 -11.10767 -11.11970   7.32500   0.25495   78.69001  45.30953   0.00100    43   44   45    102
    45 -11.07250 -11.08415   7.57500   0.25495   78.69001  45.30953   0.00100    44   45   46    102
    46 -11.03734 -11.04861   7.82500   0.25495   78.69001  45.30953   0.00100    45   46   47    102
    47 -11.00217 -11.01306   8.07500   0.25495   78.69001  45.30953   0.00100    46   47   48    102
    48 -10.96701 -10.97752   8.32500   0.25495   78.69001  45.30953   0.00100    47   48   49    102
    49 -10.93185 -10.94197   8.57500   0.25495   78.69001  45.30953   0.00100    48   49   50    102
    50 -10.89668 -10.90642   8.82500   0.25495   78.69001  45.30953   0.00100    49   50   51    102
    51 -10.86152 -10.87088   9.07500   0.25495   78.69001  45.30953   0.00100    50   51   52    102
    52 -10.82635 -10.83533   9.32500   0.25495   78.69001  45.30953   0.00100    51   52   53    102
    53 -10.79119 -10.79979   9.57500   0.25495   78.69001  45.30953   0.00100    52   53   54    102
    54 -10.75603 -10.76424   9.82500   0.25495   78.69001  45.30953   0.00100    53   54   55    102
    55 -10.72086 -10.72869  10.07500   0.25495   78.69001  45.30953   0.00100    54   55   56    102
    56 -10.68570 -10.69315  10.32500   0.25495   78.69001  45.30953   0.00100    55   56   57    102
    57 -10.65053 -10.65760  10.57500   0.25495   78.69001  45.30953   0.00100    56   57   58    102
    58 -10.61537 -10.62206  10.82500   0.25495   78.69001  45.30953   0.00100    57   58   59    102
    59 -10.58021 -10.58651  11.07500   0.25495   78.69001  45.30953   0.00100    58   59   60    102
    60 -10.54504 -10.55096  11.32500   0.25495   78.69001  45.30953   0.00100    59   60   61    102
    61 -10.50988 -10.51542  11.57500   0.25495   78.69001  45.30953   0.00100    60   61   62    102
    62 -10.47471 -10.47987  11.82500   0.25495   78.69001  45.30953   0.00100    61   62   63    102
    63 -10.43955 -10.44432  12.07500   0.25495   78.69001  45.30953   0.00100    62   63   64    102
    64 -10.40439 -10.40878  12.32500   0.25495   78.69001  45.30953   0.00100    63   64   65    102
    65 -10.36922 -10.37323  12.57500   0.25495   78.69001  45.30953   0.00100    64   65   66    102
    66 -10.33406 -10.33769  12.82500   0.25495   78.69001  45.30953   0.00100    65   66   67    102
    67 -10.29889 -10.30214  13.07500   0.25495   78.69001  45.30953   0.00100    66   67   68    102
    68 -10.26373 -10.26660  13.32500   0.25495   78.69001  45.30953   0.00100    67   68   69    102
    69 -10.22857 -10.23105  13.57500   0.25495   78.69001  45.30953   0.00100    68   69   70    102
    70 -10.19340 -10.19550  13.82500   0.25495   78.69001  45.30953   0.00100    69   70   71    102
    71 -10.15824 -10.15996  14.07500   0.25495   78.69001  45.30953   0.00100    70   71   72    102
    72 -10.12307 -10.12441  14.32500   0.25495   78.69001  45.30953   0.00100    71   72   73    102
    73 -10.08791 -10.08887  14.57500   0.25495   78.69001  45.30953   0.00100    72   73   74    102
    74 -10.05275 -10.05332  14.82500   0.25495   78.69001  45.30953   0.00100    73   74   75    102
    75 -10.01758 -10.01777  15.07500   0.25495   78.69001  45.30953   0.00100    74   75 -150    102
    76 -10.05000 -10.00027   0.39700   0.13725   43.22811-179.69061   0.00100  -151   76   77    103
    77 -10.15000 -10.00081   0.49100   0.13725   43.22811-179.69061   0.00100    76   77   78    103
    78 -10.25000 -10.00135   0.58500   0.13725   43.22811-179.69061   0.00100    77   78   79    103
    79 -10.35000 -10.00189   0.67900   0.13725   43.22811-179.69061   0.00100    78   79   80    103
    80 -10.45000 -10.00243   0.77300   0.13725   43.22811-179.69061   0.00100    79   80   81    103
    81 -10.55000 -10.00297   0.86700   0.13725   43.22811-179.69061   0.00100    80   81   82    103
    82 -10.65000 -10.00351   0.96100   0.13725   43.22811-179.69061   0.00100    81   82   83    103
    83 -10.75000 -10.00405   1.05500   0.13725   43.22811-179.69061   0.00100    82   83   84    103
    84 -10.85000 -10.00459   1.14900   0.13725   43.22811-179.69061   0.00100    83   84   85    103
    85 -10.95000 -10.00513   1.24300   0.13725   43.22811-179.69061   0.00100    84   85   86    103
    86 -11.05000 -10.00567   1.33700   0.13725   43.22811-179.69061   0.00100    85   86   87    103
    87 -11.15000 -10.00621   1.43100   0.13725   43.22811-179.69061   0.00100    86   87   88    103
    88 -11.25000 -10.00675   1.52500   0.13725   43.22811-179.69061   0.00100    87   88   89    103
    89 -11.35000 -10.00729   1.61900   0.13725   43.22811-179.69061   0.00100    88   89   90    103
    90 -11.45000 -10.00783   1.71300   0.13725   43.22811-179.69061   0.00100    89   90   91    103
    91 -11.55000 -10.00837   1.80700   0.13725   43.22811-179.69061   0.00100    90   91   92    103
    92 -11.65000 -10.00891   1.90100   0.13725   43.22811-179.69061   0.00100    91   92   93    103
    93 -11.75000 -10.00945   1.99500   0.13725   43.22811-179.69061   0.00100    92   93   94    103
    94 -11.85000 -10.00999   2.08900   0.13725   43.22811-179.69061   0.00100    93   94   95    103
    95 -11.95000 -10.01053   2.18300   0.13725   43.22811-179.69061   0.00100    94   95   96    103
    96 -12.05000 -10.01107   2.27700   0.13725   43.22811-179.69061   0.00100    95   96   97    103
    97 -12.15000 -10.01161   2.37100   0.13725   43.22811-179.69061   0.00100    96   97   98    103
    98 -12.25000 -10.01215   2.46500   0.13725   43.22811-179.69061   0.00100    97   98   99    103
    99 -12.35000 -10.01269   2.55900   0.13725   43.22811-179.69061   0.00100    98   99  100    103
   100 -12.45000 -10.01323   2.65300   0.13725   43.22811-179.69061   0.00100    99  100  101    103
   101 -12.47500 -10.01337   2.82500   0.25495   78.68991   0.30939   0.00100   100  101  102    104
   102 -12.42500 -10.01310   3.07500   0.25495   78.68991   0.30939   0.00100   101  102  103    104
   103 -12.37500 -10.01282   3.32500   0.25495   78.68991   0.30939   0.00100   102  103  104    104
   104 -12.32500 -10.01256   3.57500   0.25495   78.68991   0.30939   0.00100   103  104  105    104
   105 -12.27500 -10.01229   3.82500   0.25495   78.68991   0.30939   0.00100   104  105  106    104
   106 -12.22500 -10.01202   4.07500   0.25495   78.68991   0.30939   0.00100   105  106  107    104
   107 -12.17500 -10.01175   4.32500   0.25495   78.68991   0.30939   0.00100   106  107  108    104
   108 -12.12500 -10.01148   4.57500   0.25495   78.68991   0.30939   0.00100   107  108  109    104
   109 -12.07500 -10.01121   4.82500   0.25495   78.68991   0.30939   0.00100   108  109  110    104
   110 -12.02500 -10.01094   5.07500   0.25495   78.68991   0.30939   0.00100   109  110  111    104
   111 -11.97500 -10.01066   5.32500   0.25495   78.68991   0.30939   0.00100   110  111  112    104
   112 -11.92500 -10.01040   5.57500   0.25495   78.68991   0.30939   0.00100   111  112  113    104
   113 -11.87500 -10.01013   5.82500   0.25495   78.68991   0.30939   0.00100   112  113  114    104
   114 -11.82500 -10.00986   6.07500   0.25495   78.68991   0.30939   0.00100   113  114  115    104
   115 -11.77500 -10.00959   6.32500   0.25495   78.68991   0.30939   0.00100   114  115  116    104
   116 -11.72500 -10.00932   6.57500   0.25495   78.68991   0.30939   0.00100   115  116  117    104
   117 -11.67500 -10.00905   6.82500   0.25495   78.68991   0.30939   0.00100   116  117  118    104
   118 -11.62500 -10.00878   7.07500   0.25495   78.68991   0.30939   0.00100   117  118  119    104
   119 -11.57500 -10.00851   7.32500   0.25495   78.68991   0.30939   0.00100   118  119  120    104
   120 -11.52500 -10.00824   7.57500   0.25495   78.68991   0.30939   0.00100   119  120  121    104
   121 -11.47500 -10.00797   7.82500   0.25495   78.68991   0.30939   0.00100   120  121  122    104
   122 -11.42500 -10.00770   8.07500   0.25495   78.68991   0.30939   0.00100   121  122  123    104
   123 -11.37500 -10.00743   8.32500   0.25495   78.68991   0.30939   0.00100   122  123  124    104
   124 -11.32500 -10.00716   8.57500   0.25495   78.68991   0.30939   0.00100   123  124  125    104
   125 -11.27500 -10.00689   8.82500   0.25495   78.68991   0.30939   0.00100   124  125  126    104
   126 -11.22500 -10.00662   9.07500   0.25495   78.68991   0.30939   0.00100   125  126  127    104
   127 -11.17500 -10.00635   9.32500   0.25495   78.68991   0.30939   0.00100   126  127  128    104
   128 -11.12500 -10.00607   9.57500   0.25495   78.68991   0.30939   0.00100   127  128  129    104
   129 -11.07500 -10.00581   9.82500   0.25495   78.68991   0.30939   0.00100   128  129  130    104
   130 -11.02500 -10.00554  10.07500   0.25495   78.68991   0.30939   0.00100   129  130  131    104
   131 -10.97500 -10.00527  10.32500   0.25495   78.68991   0.30939   0.00100   130  131  132    104
   132 -10.92500 -10.00500  10.57500   0.25495   78.68991   0.30939   0.00100   131  132  133    104
   133 -10.87500 -10.00473  10.82500   0.25495   78.68991   0.30939   0.00100   132  133  134    104
   134 -10.82500 -10.00446  11.07500   0.25495   78.68991   0.30939   0.00100   133  134  135    104
   135 -10.77500 -10.00419  11.32500   0.25495   78.68991   0.30939   0.00100   134  135  136    104
   136 -10.72500 -10.00391  11.57500   0.25495   78.68991   0.30939   0.00100   135  136  137    104
   137 -10.67500 -10.00365  11.82500   0.25495   78.68991   0.30939   0.00100   136  137  138    104
   138 -10.62500 -10.00338  12.07500   0.25495   78.68991   0.30939   0.00100   137  138  139    104
   139 -10.57500 -10.00311  12.32500   0.25495   78.68991   0.30939   0.00100   138  139  140    104
   140 -10.52500 -10.00284  12.57500   0.25495   78.68991   0.30939   0.00100   139  140  141    104
   141 -10.47500 -10.00257  12.82500   0.25495   78.68991   0.30939   0.00100   140  141  142    104
   142 -10.42500 -10.00230  13.07500   0.25495   78.68991   0.30939   0.00100   141  142  143    104
   143 -10.37500 -10.00203  13.32500   0.25495   78.68991   0.30939   0.00100   142  143  144    104
   144 -10.32500 -10.00175  13.57500   0.25495   78.68991   0.30939   0.00100   143  144  145    104
   145 -10.27500 -10.00149  13.82500   0.25495   78.68991   0.30939   0.00100   144  145  146    104
   146 -10.22500 -10.00122  14.07500   0.25495   78.68991   0.30939   0.00100   145  146  147    104
   147 -10.17500 -10.00095  14.32500   0.25495   78.68991   0.30939   0.00100   146  147  148    104
   148 -10.12500 -10.00068  14.57500   0.25495   78.68991   0.30939   0.00100   147  148  149    104
   149 -10.07500 -10.00041  14.82500   0.25495   78.68991   0.30939   0.00100   148  149  150    104
   150 -10.02500 -10.00014  15.07500   0.25495   78.68991   0.30939   0.00100   149  150 -225    104
   151 -10.03560  -9.95555   0.39700   0.14768   39.53297 128.68608   0.00100  -226  151  152    105
   152 -10.10679  -9.86664   0.49100   0.14768   39.53297 128.68608   0.00100   151  152  153    105
   153 -10.17798  -9.77773   0.58500   0.14768   39.53297 128.68608   0.00100   152  153  154    105
   154 -10.24917  -9.68883   0.67900   0.14768   39.53297 128.68608   0.00100   153  154  155    105
   155 -10.32036  -9.59992   0.77300   0.14768   39.53297 128.68608   0.00100   154  155  156    105
   156 -10.39156  -9.51101   0.86700   0.14768   39.53297 128.68608   0.00100   155  156  157    105
   157 -10.46275  -9.42211   0.96100   0.14768   39.53297 128.68608   0.00100   156  157  158    105
   158 -10.53394  -9.33320   1.05500   0.14768   39.53297 128.68608   0.00100   157  158  159    105
   159 -10.60513  -9.24430   1.14900   0.14768   39.53297 128.68608   0.00100   158  159  160    105
   160 -10.67632  -9.15539   1.24300   0.14768   39.53297 128.68608   0.00100   159  160  161    105
   161 -10.74752  -9.06648   1.33700   0.14768   39.53297 128.68608   0.00100   160  161  162    105
   162 -10.81871  -8.97758   1.43100   0.14768   39.53297 128.68608   0.00100   161  162  163    105
   163 -10.88990  -8.88867   1.52500   0.14768   39.53297 128.68608   0.00100   162  163  164    105
   164 -10.96109  -8.79976   1.61900   0.14768   39.53297 128.68608   0.00100   163  164  165    105
   165 -11.03228  -8.71086   1.71300   0.14768   39.53297 128.68608   0.00100   164  165  166    105
   166 -11.10348  -8.62195   1.80700   0.14768   39.53297 128.68608   0.00100   165  166  167    105
   167 -11.17467  -8.53304   1.90100   0.14768   39.53297 128.68608   0.00100   166  167  168    105
   168 -11.24586  -8.44414   1.99500   0.14768   39.53297 128.68608   0.00100   167  168  169    105
   169 -11.31705  -8.35523   2.08900   0.14768   39.53297 128.68608   0.00100   168  169  170    105
   170 -11.38824  -8.26633   2.18300   0.14768   39.53297 128.68608   0.00100   169  170  171    105
   171 -11.45944  -8.17742   2.27700   0.14768   39.53297 128.68608   0.00100   170  171  172    105
   172 -11.53063  -8.08851   2.37100   0.14768   39.53297 128.68608   0.00100   171  172  173    105
   173 -11.60182  -7.99961   2.46500   0.14768   39.53297 128.68608   0.00100   172  173  174    105
   174 -11.67301  -7.91070   2.55900   0.14768   39.53297 128.68608   0.00100   173  174  175    105
   175 -11.74420  -7.82179   2.65300   0.14768   39.53297 128.68608   0.00100   174  175  176    105
   176 -11.76200  -7.79957   2.82500   0.25640   77.16728 -51.31392   0.00100   175  176  177    106
   177 -11.72641  -7.84402   3.07500   0.25640   77.16728 -51.31392   0.00100   176  177  178    106
   178 -11.69081  -7.88847   3.32500   0.25640   77.16728 -51.31392   0.00100   177  178  179    106
   179 -11.65521  -7.93293   3.57500   0.25640   77.16728 -51.31392   0.00100   178  179  180    106
   180 -11.61962  -7.97738   3.82500   0.25640   77.16728 -51.31392   0.00100   179  180  181    106
   181 -11.58402  -8.02183   4.07500   0.25640   77.16728 -51.31392   0.00100   180  181  182    106
   182 -11.54843  -8.06629   4.32500   0.25640   77.16728 -51.31392   0.00100   181  182  183    106
   183 -11.51283  -8.11074   4.57500   0.25640   77.16728 -51.31392   0.00100   182  183  184    106
   184 -11.47723  -8.15519   4.82500   0.25640   77.16728 -51.31392   0.00100   183  184  185    106
   185 -11.44164  -8.19965   5.07500   0.25640   77.16728 -51.31392   0.00100   184  185  186    106
   186 -11.40604  -8.24410   5.32500   0.25640   77.16728 -51.31392   0.00100   185  186  187    106
   187 -11.37045  -8.28855   5.57500   0.25640   77.16728 -51.31392   0.00100   186  187  188    106
   188 -11.33485  -8.33301   5.82500   0.25640   77.16728 -51.31392   0.00100   187  188  189    106
   189 -11.29925  -8.37746   6.07500   0.25640   77.16728 -51.31392   0.00100   188  189  190    106
   190 -11.26366  -8.42191   6.32500   0.25640   77.16728 -51.31392   0.00100   189  190  191    106
   191 -11.22806  -8.46636   6.57500   0.25640   77.16728 -51.31392   0.00100   190  191  192    106
   192 -11.19247  -8.51082   6.82500   0.25640   77.16728 -51.31392   0.00100   191  192  193    106
   193 -11.15687  -8.55527   7.07500   0.25640   77.16728 -51.31392   0.00100   192  193  194    106
   194 -11.12127  -8.59972   7.32500   0.25640   77.16728 -51.31392   0.00100   193  194  195    106
   195 -11.08568  -8.64418   7.57500   0.25640   77.16728 -51.31392   0.00100   194  195  196    106
   196 -11.05008  -8.68863   7.82500   0.25640   77.16728 -51.31392   0.00100   195  196  197    106
   197 -11.01449  -8.73308   8.07500   0.25640   77.16728 -51.31392   0.00100   196  197  198    106
   198 -10.97889  -8.77754   8.32500   0.25640   77.16728 -51.31392   0.00100   197  198  199    106
   199 -10.94329  -8.82199   8.57500   0.25640   77.16728 -51.31392   0.00100   198  199  200    106
   200 -10.90770  -8.86644   8.82500   0.25640   77.16728 -51.31392   0.00100   199  200  201    106
   201 -10.87210  -8.91090   9.07500   0.25640   77.16728 -51.31392   0.00100   200  201  202    106
   202 -10.83651  -8.95535   9.32500   0.25640   77.16728 -51.31392   0.00100   201  202  203    106
   203 -10.80091  -8.99980   9.57500   0.25640   77.16728 -51.31392   0.00100   202  203  204    106
   204 -10.76531  -9.04426   9.82500   0.25640   77.16728 -51.31392   0.00100   203  204  205    106
   205 -10.72972  -9.08871  10.07500   0.25640   77.16728 -51.31392   0.00100   204  205  206    106
   206 -10.69412  -9.13316  10.32500   0.25640   77.16728 -51.31392   0.00100   205  206  207    106
   207 -10.65853  -9.17762  10.57500   0.25640   77.16728 -51.31392   0.00100   206  207  208    106
   208 -10.62293  -9.22207  10.82500   0.25640   77.16728 -51.31392   0.00100   207  208  209    106
   209 -10.58733  -9.26652  11.07500   0.25640   77.16728 -51.31392   0.00100   208  209  210    106
   210 -10.55174  -9.31098  11.32500   0.25640   77.16728 -51.31392   0.00100   209  210  211    106
   211 -10.51614  -9.35543  11.57500   0.25640   77.16728 -51.31392   0.00100   210  211  212    106
   212 -10.48055  -9.39988  11.82500   0.25640   77.16728 -51.31392   0.00100   211  212  213    106
   213 -10.44495  -9.44433  12.07500   0.25640   77.16728 -51.31392   0.00100   212  213  214    106
   214 -10.40935  -9.48879  12.32500   0.25640   77.16728 -51.31392   0.00100   213  214  215    106
   215 -10.37376  -9.53324  12.57500   0.25640   77.16728 -51.31392   0.00100   214  215  216    106
   216 -10.33816  -9.57769  12.82500   0.25640   77.16728 -51.31392   0.00100   215  216  217    106
   217 -10.30257  -9.62215  13.07500   0.25640   77.16728 -51.31392   0.00100   216  217  218    106
   218 -10.26697  -9.66660  13.32500   0.25640   77.16728 -51.31392   0.00100   217  218  219    106
   219 -10.23137  -9.71105  13.57500   0.25640   77.16728 -51.31392   0.00100   218  219  220    106
   220 -10.19578  -9.75551  13.82500   0.25640   77.16728 -51.31392   0.00100   219  220  221    106
   221 -10.16018  -9.79996  14.07500   0.25640   77.16728 -51.31392   0.00100   220  221  222    106
   222 -10.12459  -9.84441  14.32500   0.25640   77.16728 -51.31392   0.00100   221  222  223    106
   223 -10.08899  -9.88887  14.57500   0.25640   77.16728 -51.31392   0.00100   222  223  224    106
   224 -10.05339  -9.93332  14.82500   0.25640   77.16728 -51.31392   0.00100   223  224  225    106
   225 -10.01780  -9.97777  15.07500   0.25640   77.16728 -51.31392   0.00100   224  225 -300    106
   226 -10.00027  -9.95000   0.39700   0.13724   43.22857  90.30940   0.00100  -301  226  227    107
   227 -10.00081  -9.85000   0.49100   0.13724   43.22857  90.30940   0.00100   226  227  228    107
   228 -10.00135  -9.75000   0.58500   0.13724   43.22857  90.30940   0.00100   227  228  229    107
   229 -10.00189  -9.65001   0.67900   0.13724   43.22857  90.30940   0.00100   228  229  230    107
   230 -10.00243  -9.55001   0.77300   0.13724   43.22857  90.30940   0.00100   229  230  231    107
   231 -10.00297  -9.45001   0.86700   0.13724   43.22857  90.30940   0.00100   230  231  232    107
   232 -10.00351  -9.35001   0.96100   0.13724   43.22857  90.30940   0.00100   231  232  233    107
   233 -10.00405  -9.25001   1.05500   0.13724   43.22857  90.30940   0.00100   232  233  234    107
   234 -10.00459  -9.15001   1.14900   0.13724   43.22857  90.30940   0.00100   233  234  235    107
   235 -10.00513  -9.05002   1.24300   0.13724   43.22857  90.30940   0.00100   234  235  236    107
   236 -10.00567  -8.95002   1.33700   0.13724   43.22857  90.30940   0.00100   235  236  237    107
   237 -10.00621  -8.85002   1.43100   0.13724   43.22857  90.30940   0.00100   236  237  238    107
   238 -10.00675  -8.75002   1.52500   0.13724   43.22857  90.30940   0.00100   237  238  239    107
   239 -10.00729  -8.65002   1.61900   0.13724   43.22857  90.30940   0.00100   238  239  240    107
   240 -10.00783  -8.55002   1.71300   0.13724   43.22857  90.30940   0.00100   239  240  241    107
   241 -10.00837  -8.45002   1.80700   0.13724   43.22857  90.30940   0.00100   240  241  242    107
   242 -10.00891  -8.35003   1.90100   0.13724   43.22857  90.30940   0.00100   241  242  243    107
   243 -10.00945  -8.25003   1.99500   0.13724   43.22857  90.30940   0.00100   242  243  244    107
   244 -10.00999  -8.15003   2.08900   0.13724   43.22857  90.30940   0.00100   243  244  245    107
   245 -10.01053  -8.05003   2.18300   0.13724   43.22857  90.30940   0.00100   244  245  246    107
   246 -10.01107  -7.95003   2.27700   0.13724   43.22857  90.30940   0.00100   245  246  247    107
   247 -10.01161  -7.85003   2.37100   0.13724   43.22857  90.30940   0.00100   246  247  248    107
   248 -10.01215  -7.75004   2.46500   0.13724   43.22857  90.30940   0.00100   247  248  249    107
   249 -10.01269  -7.65004   2.55900   0.13724   43.22857  90.30940   0.00100   248  249  250    107
   250 -10.01323  -7.55004   2.65300   0.13724   43.22857  90.30940   0.00100   249  250  251    107
   251 -10.01337  -7.52504   2.82500   0.25495   78.69008 -89.69060   0.00100   250  251  252    108
   252 -10.01310  -7.57504   3.07500   0.25495   78.69008 -89.69060   0.00100   251  252  253    108
   253 -10.01282  -7.62504   3.32500   0.25495   78.69008 -89.69060   0.00100   252  253  254    108
   254 -10.01256  -7.67504   3.57500   0.25495   78.69008 -89.69060   0.00100   253  254  255    108
   255 -10.01229  -7.72504   3.82500   0.25495   78.69008 -89.69060   0.00100   254  255  256    108
   256 -10.01202  -7.77504   4.07500   0.25495   78.69008 -89.69060   0.00100   255  256  257    108
   257 -10.01175  -7.82503   4.32500   0.25495   78.69008 -89.69060   0.00100   256  257  258    108
   258 -10.01148  -7.87503   4.57500   0.25495   78.69008 -89.69060   0.00100   257  258  259    108
   259 -10.01121  -7.92503   4.82500   0.25495   78.69008 -89.69060   0.00100   258  259  260    108
   260 -10.01094  -7.97503   5.07500   0.25495   78.69008 -89.69060   0.00100   259  260  261    108
   261 -10.01066  -8.02503   5.32500   0.25495   78.69008 -89.69060   0.00100   260  261  262    108
   262 -10.01040  -8.07503   5.57500   0.25495   78.69008 -89.69060   0.00100   261  262  263    108
   263 -10.01013  -8.12503   5.82500   0.25495   78.69008 -89.69060   0.00100   262  263  264    108
   264 -10.00986  -8.17503   6.07500   0.25495   78.69008 -89.69060   0.00100   263  264  265    108
   265 -10.00959  -8.22503   6.32500   0.25495   78.69008 -89.69060   0.00100   264  265  266    108
   266 -10.00932  -8.27503   6.57500   0.25495   78.69008 -89.69060   0.00100   265  266  267    108
   267 -10.00905  -8.32503   6.82500   0.25495   78.69008 -89.69060   0.00100   266  267  268    108
   268 -10.00878  -8.37503   7.07500   0.25495   78.69008 -89.69060   0.00100   267  268  269    108
   269 -10.00851  -8.42503   7.32500   0.25495   78.69008 -89.69060   0.00100   268  269  270    108
   270 -10.00824  -8.47502   7.57500   0.25495   78.69008 -89.69060   0.00100   269  270  271    108
   271 -10.00797  -8.52502   7.82500   0.25495   78.69008 -89.69060   0.00100   270  271  272    108
   272 -10.00770  -8.57502   8.07500   0.25495   78.69008 -89.69060   0.00100   271  272  273    108
   273 -10.00743  -8.62502   8.32500   0.25495   78.69008 -89.69060   0.00100   272  273  274    108
   274 -10.00716  -8.67502   8.57500   0.25495   78.69008 -89.69060   0.00100   273  274  275    108
   275 -10.00689  -8.72502   8.82500   0.25495   78.69008 -89.69060   0.00100   274  275  276    108
   276 -10.00662  -8.77502   9.07500   0.25495   78.69008 -89.69060   0.00100   275  276  277    108
   277 -10.00635  -8.82502   9.32500   0.25495   78.69008 -89.69060   0.00100   276  277  278    108
   278 -10.00607  -8.87502   9.57500   0.25495   78.69008 -89.69060   0.00100   277  278  279    108
   279 -10.00581  -8.92502   9.82500   0.25495   78.69008 -89.69060   0.00100   278  279  280    108
   280 -10.00554  -8.97502  10.07500   0.25495   78.69008 -89.69060   0.00100   279  280  281    108
   281 -10.00527  -9.02502  10.32500   0.25495   78.69008 -89.69060   0.00100   280  281  282    108
   282 -10.00500  -9.07501  10.57500   0.25495   78.69008 -89.69060   0.00100   281  282  283    108
   283 -10.00473  -9.12501  10.82500   0.25495   78.69008 -89.69060   0.00100   282  283  284    108
   284 -10.00446  -9.17501  11.07500   0.25495   78.69008 -89.69060   0.00100   283  284  285    108
   285 -10.00419  -9.22501  11.32500   0.25495   78.69008 -89.69060   0.00100   284  285  286    108
   286 -10.00391  -9.27501  11.57500   0.25495   78.69008 -89.69060   0.00100   285  286  287    108
   287 -10.00365  -9.32501  11.82500   0.25495   78.69008 -89.69060   0.00100   286  287  288    108
   288 -10.00338  -9.37501  12.07500   0.25495   78.69008 -89.69060   0.00100   287  288  289    108
   289 -10.00311  -9.42501  12.32500   0.25495   78.69008 -89.69060   0.00100   288  289  290    108
   290 -10.00284  -9.47501  12.57500   0.25495   78.69008 -89.69060   0.00100   289  290  291    108
   291 -10.00257  -9.52501  12.82500   0.25495   78.69008 -89.69060   0.00100   290  291  292    108
   292 -10.00230  -9.57501  13.07500   0.25495   78.69008 -89.69060   0.00100   291  292  293    108
   293 -10.00203  -9.62501  13.32500   0.25495   78.69008 -89.69060   0.00100   292  293  294    108
   294 -10.00175  -9.67501  13.57500   0.25495   78.69008 -89.69060   0.00100   293  294  295    108
   295 -10.00149  -9.72500  13.82500   0.25495   78.69008 -89.69060   0.00100   294  295  296    108
   296 -10.00122  -9.77500  14.07500   0.25495   78.69008 -89.69060   0.00100   295  296  297    108
   297 -10.00095  -9.82500  14.32500   0.25495   78.69008 -89.69060   0.00100   296  297  298    108
   298 -10.00068  -9.87500  14.57500   0.25495   78.69008 -89.69060   0.00100   297  298  299    108
   299 -10.00041  -9.92500  14.82500   0.25495   78.69008 -89.69060   0.00100   298  299  300    108
   300 -10.00014  -9.97500  15.07500   0.25495   78.69008 -89.69060   0.00100   299  300 -375    108
   301  -9.95560  -9.95511   0.39700   0.15742   36.66444  45.30929   0.00100  -376  301  302    109
   302  -9.86679  -9.86535   0.49100   0.15742   36.66444  45.30929   0.00100   301  302  303    109
   303  -9.77799  -9.77557   0.58500   0.15742   36.66444  45.30929   0.00100   302  303  304    109
   304  -9.68918  -9.68580   0.67900   0.15742   36.66444  45.30929   0.00100   303  304  305    109
   305  -9.60037  -9.59604   0.77300   0.15742   36.66444  45.30929   0.00100   304  305  306    109
   306  -9.51157  -9.50626   0.86700   0.15742   36.66444  45.30929   0.00100   305  306  307    109
   307  -9.42276  -9.41650   0.96100   0.15742   36.66444  45.30929   0.00100   306  307  308    109
   308  -9.33395  -9.32672   1.05500   0.15742   36.66444  45.30929   0.00100   307  308  309    109
   309  -9.24515  -9.23696   1.14900   0.15742   36.66444  45.30929   0.00100   308  309  310    109
   310  -9.15634  -9.14719   1.24300   0.15742   36.66444  45.30929   0.00100   309  310  311    109
   311  -9.06754  -9.05741   1.33700   0.15742   36.66444  45.30929   0.00100   310  311  312    109
   312  -8.97873  -8.96765   1.43100   0.15742   36.66444  45.30929   0.00100   311  312  313    109
   313  -8.88992  -8.87787   1.52500   0.15742   36.66444  45.30929   0.00100   312  313  314    109
   314  -8.80112  -8.78810   1.61900   0.15742   36.66444  45.30929   0.00100   313  314  315    109
   315  -8.71231  -8.69834   1.71300   0.15742   36.66444  45.30929   0.00100   314  315  316    109
   316  -8.62351  -8.60856   1.80700   0.15742   36.66444  45.30929   0.00100   315  316  317    109
   317  -8.53470  -8.51880   1.90100   0.15742   36.66444  45.30929   0.00100   316  317  318    109
   318  -8.44590  -8.42902   1.99500   0.15742   36.66444  45.30929   0.00100   317  318  319    109
   319  -8.35709  -8.33926   2.08900   0.15742   36.66444  45.30929   0.00100   318  319  320    109
   320  -8.26828  -8.24949   2.18300   0.15742   36.66444  45.30929   0.00100   319  320  321    109
   321  -8.17948  -8.15971   2.27700   0.15742   36.66444  45.30929   0.00100   320  321  322    109
   322  -8.09067  -8.06995   2.37100   0.15742   36.66444  45.30929   0.00100   321  322  323    109
   323  -8.00186  -7.98018   2.46500   0.15742   36.66444  45.30929   0.00100   322  323  324    109
   324  -7.91306  -7.89040   2.55900   0.15742   36.66444  45.30929   0.00100   323  324  325    109
   325  -7.82425  -7.80063   2.65300   0.15742   36.66444  45.30929   0.00100   324  325  326    109
   326  -7.80205  -7.77819   2.82500   0.25785   75.82642-134.69071   0.00100   325  326  327    110
   327  -7.84645  -7.82308   3.07500   0.25785   75.82642-134.69071   0.00100   326  327  328    110
   328  -7.89086  -7.86796   3.32500   0.25785   75.82642-134.69071   0.00100   327  328  329    110
   329  -7.93526  -7.91285   3.57500   0.25785   75.82642-134.69071   0.00100   328  329  330    110
   330  -7.97966  -7.95773   3.82500   0.25785   75.82642-134.69071   0.00100   329  330  331    110
   331  -8.02407  -8.00262   4.07500   0.25785   75.82642-134.69071   0.00100   330  331  332    110
   332  -8.06847  -8.04750   4.32500   0.25785   75.82642-134.69071   0.00100   331  332  333    110
   333  -8.11287  -8.09239   4.57500   0.25785   75.82642-134.69071   0.00100   332  333  334    110
   334  -8.15728  -8.13727   4.82500   0.25785   75.82642-134.69071   0.00100   333  334  335    110
   335  -8.20168  -8.18216   5.07500   0.25785   75.82642-134.69071   0.00100   334  335  336    110
   336  -8.24608  -8.22704   5.32500   0.25785   75.82642-134.69071   0.00100   335  336  337    110
   337  -8.29048  -8.27193   5.57500   0.25785   75.82642-134.69071   0.00100   336  337  338    110
   338  -8.33489  -8.31681   5.82500   0.25785   75.82642-134.69071   0.00100   337  338  339    110
   339  -8.37929  -8.36170   6.07500   0.25785   75.82642-134.69071   0.00100   338  339  340    110
   340  -8.42369  -8.40658   6.32500   0.25785   75.82642-134.69071   0.00100   339  340  341    110
   341  -8.46810  -8.45147   6.57500   0.25785   75.82642-134.69071   0.00100   340  341  342    110
   342  -8.51250  -8.49635   6.82500   0.25785   75.82642-134.69071   0.00100   341  342  343    110
   343  -8.55690  -8.54124   7.07500   0.25785   75.82642-134.69071   0.00100   342  343  344    110
   344  -8.60131  -8.58612   7.32500   0.25785   75.82642-134.69071   0.00100   343  344  345    110
   345  -8.64571  -8.63101   7.57500   0.25785   75.82642-134.69071   0.00100   344  345  346    110
   346  -8.69011  -8.67589   7.82500   0.25785   75.82642-134.69071   0.00100   345  346  347    110
   347  -8.73451  -8.72078   8.07500   0.25785   75.82642-134.69071   0.00100   346  347  348    110
   348  -8.77892  -8.76566   8.32500   0.25785   75.82642-134.69071   0.00100   347  348  349    110
   349  -8.82332  -8.81055   8.57500   0.25785   75.82642-134.69071   0.00100   348  349  350    110
   350  -8.86772  -8.85543   8.82500   0.25785   75.82642-134.69071   0.00100   349  350  351    110
   351  -8.91213  -8.90032   9.07500   0.25785   75.82642-134.69071   0.00100   350  351  352    110
   352  -8.95653  -8.94520   9.32500   0.25785   75.82642-134.69071   0.00100   351  352  353    110
   353  -9.00093  -8.99009   9.57500   0.25785   75.82642-134.69071   0.00100   352  353  354    110
   354  -9.04534  -9.03497   9.82500   0.25785   75.82642-134.69071   0.00100   353  354  355    110
   355  -9.08974  -9.07986  10.07500   0.25785   75.82642-134.69071   0.00100   354  355  356    110
   356  -9.13414  -9.12474  10.32500   0.25785   75.82642-134.69071   0.00100   355  356  357    110
   357  -9.17854  -9.16963  10.57500   0.25785   75.82642-134.69071   0.00100   356  357  358    110
   358  -9.22295  -9.21451  10.82500   0.25785   75.82642-134.69071   0.00100   357  358  359    110
   359  -9.26735  -9.25940  11.07500   0.25785   75.82642-134.69071   0.00100   358  359  360    110
   360  -9.31175  -9.30428  11.32500   0.25785   75.82642-134.69071   0.00100   359  360  361    110
   361  -9.35616  -9.34917  11.57500   0.25785   75.82642-134.69071   0.00100   360  361  362    110
   362  -9.40056  -9.39405  11.82500   0.25785   75.82642-134.69071   0.00100   361  362  363    110
   363  -9.44496  -9.43894  12.07500   0.25785   75.82642-134.69071   0.00100   362  363  364    110
   364  -9.48937  -9.48382  12.32500   0.25785   75.82642-134.69071   0.00100   363  364  365    110
   365  -9.53377  -9.52871  12.57500   0.25785   75.82642-134.69071   0.00100   364  365  366    110
   366  -9.57817  -9.57359  12.82500   0.25785   75.82642-134.69071   0.00100   365  366  367    110
   367  -9.62257  -9.61848  13.07500   0.25785   75.82642-134.69071   0.00100   366  367  368    110
   368  -9.66698  -9.66336  13.32500   0.25785   75.82642-134.69071   0.00100   367  368  369    110
   369  -9.71138  -9.70825  13.57500   0.25785   75.82642-134.69071   0.00100   368  369  370    110
   370  -9.75578  -9.75313  13.82500   0.25785   75.82642-134.69071   0.00100   369  370  371    110
   371  -9.80019  -9.79802  14.07500   0.25785   75.82642-134.69071   0.00100   370  371  372    110
   372  -9.84459  -9.84290  14.32500   0.25785   75.82642-134.69071   0.00100   371  372  373    110
   373  -9.88899  -9.88779  14.57500   0.25785   75.82642-134.69071   0.00100   372  373  374    110
   374  -9.93340  -9.93267  14.82500   0.25785   75.82642-134.69071   0.00100   373  374  375    110
   375  -9.97780  -9.97756  15.07500   0.25785   75.82642-134.69071   0.00100   374  375 -450    110
   376  -9.95000  -9.99973   0.39700   0.13724   43.22857   0.30940   0.00100  -451  376  377    111
   377  -9.85000  -9.99919   0.49100   0.13724   43.22857   0.30940   0.00100   376  377  378    111
   378  -9.75000  -9.99865   0.58500   0.13724   43.22857   0.30940   0.00100   377  378  379    111
   379  -9.65001  -9.99811   0.67900   0.13724   43.22857   0.30940   0.00100   378  379  380    111
   380  -9.55001  -9.99757   0.77300   0.13724   43.22857   0.30940   0.00100   379  380  381    111
   381  -9.45001  -9.99703   0.86700   0.13724   43.22857   0.30940   0.00100   380  381  382    111
   382  -9.35001  -9.99649   0.96100   0.13724   43.22857   0.30940   0.00100   381  382  383    111
   383  -9.25001  -9.99595   1.05500   0.13724   43.22857   0.30940   0.00100   382  383  384    111
   384  -9.15001  -9.99541   1.14900   0.13724   43.22857   0.30940   0.00100   383  384  385    111
   385  -9.05002  -9.99487   1.24300   0.13724   43.22857   0.30940   0.00100   384  385  386    111
   386  -8.95002  -9.99433   1.33700   0.13724   43.22857   0.30940   0.00100   385  386  387    111
   387  -8.85002  -9.99379   1.43100   0.13724   43.22857   0.30940   0.00100   386  387  388    111
   388  -8.75002  -9.99325   1.52500   0.13724   43.22857   0.30940   0.00100   387  388  389    111
   389  -8.65002  -9.99271   1.61900   0.13724   43.22857   0.30940   0.00100   388  389  390    111
   390  -8.55002  -9.99217   1.71300   0.13724   43.22857   0.30940   0.00100   389  390  391    111
   391  -8.45002  -9.99163   1.80700   0.13724   43.22857   0.30940   0.00100   390  391  392    111
   392  -8.35003  -9.99109   1.90100   0.13724   43.22857   0.30940   0.00100   391  392  393    111
   393  -8.25003  -9.99055   1.99500   0.13724   43.22857   0.30940   0.00100   392  393  394    111
   394  -8.15003  -9.99001   2.08900   0.13724   43.22857   0.30940   0.00100   393  394  395    111
   395  -8.05003  -9.98947   2.18300   0.13724   43.22857   0.30940   0.00100   394  395  396    111
   396  -7.95003  -9.98893   2.27700   0.13724   43.22857   0.30940   0.00100   395  396  397    111
   397  -7.85003  -9.98839   2.37100   0.13724   43.22857   0.30940   0.00100   396  397  398    111
   398  -7.75004  -9.98785   2.46500   0.13724   43.22857   0.30940   0.00100   397  398  399    111
   399  -7.65004  -9.98731   2.55900   0.13724   43.22857   0.30940   0.00100   398  399  400    111
   400  -7.55004  -9.98677   2.65300   0.13724   43.22857   0.30940   0.00100   399  400  401    111
   401  -7.52504  -9.98663   2.82500   0.25495   78.69008-179.69060   0.00100   400  401  402    112
   402  -7.57504  -9.98691   3.07500   0.25495   78.69008-179.69060   0.00100   401  402  403    112
   403  -7.62504  -9.98718   3.32500   0.25495   78.69008-179.69060   0.00100   402  403  404    112
   404  -7.67504  -9.98744   3.57500   0.25495   78.69008-179.69060   0.00100   403  404  405    112
   405  -7.72504  -9.98771   3.82500   0.25495   78.69008-179.69060   0.00100   404  405  406    112
   406  -7.77504  -9.98799   4.07500   0.25495   78.69008-179.69060   0.00100   405  406  407    112
   407  -7.82503  -9.98825   4.32500   0.25495   78.69008-179.69060   0.00100   406  407  408    112
   408  -7.87503  -9.98852   4.57500   0.25495   78.69008-179.69060   0.00100   407  408  409    112
   409  -7.92503  -9.98879   4.82500   0.25495   78.69008-179.69060   0.00100   408  409  410    112
   410  -7.97503  -9.98907   5.07500   0.25495   78.69008-179.69060   0.00100   409  410  411    112
   411  -8.02503  -9.98934   5.32500   0.25495   78.69008-179.69060   0.00100   410  411  412    112
   412  -8.07503  -9.98960   5.57500   0.25495   78.69008-179.69060   0.00100   411  412  413    112
   413  -8.12503  -9.98987   5.82500   0.25495   78.69008-179.69060   0.00100   412  413  414    112
   414  -8.17503  -9.99015   6.07500   0.25495   78.69008-179.69060   0.00100   413  414  415    112
   415  -8.22503  -9.99041   6.32500   0.25495   78.69008-179.69060   0.00100   414  415  416    112
   416  -8.27503  -9.99068   6.57500   0.25495   78.69008-179.69060   0.00100   415  416  417    112
   417  -8.32503  -9.99095   6.82500   0.25495   78.69008-179.69060   0.00100   416  417  418    112
   418  -8.37503  -9.99123   7.07500   0.25495   78.69008-179.69060   0.00100   417  418  419    112
   419  -8.42503  -9.99150   7.32500   0.25495   78.69008-179.69060   0.00100   418  419  420    112
   420  -8.47502  -9.99176   7.57500   0.25495   78.69008-179.69060   0.00100   419  420  421    112
   421  -8.52502  -9.99203   7.82500   0.25495   78.69008-179.69060   0.00100   420  421  422    112
   422  -8.57502  -9.99231   8.07500   0.25495   78.69008-179.69060   0.00100   421  422  423    112
   423  -8.62502  -9.99257   8.32500   0.25495   78.69008-179.69060   0.00100   422  423  424    112
   424  -8.67502  -9.99284   8.57500   0.25495   78.69008-179.69060   0.00100   423  424  425    112
   425  -8.72502  -9.99311   8.82500   0.25495   78.69008-179.69060   0.00100   424  425  426    112
   426  -8.77502  -9.99339   9.07500   0.25495   78.69008-179.69060   0.00100   425  426  427    112
   427  -8.82502  -9.99366   9.32500   0.25495   78.69008-179.69060   0.00100   426  427  428    112
   428  -8.87502  -9.99393   9.57500   0.25495   78.69008-179.69060   0.00100   427  428  429    112
   429  -8.92502  -9.99419   9.82500   0.25495   78.69008-179.69060   0.00100   428  429  430    112
   430  -8.97502  -9.99446  10.07500   0.25495   78.69008-179.69060   0.00100   429  430  431    112
   431  -9.02502  -9.99474  10.32500   0.25495   78.69008-179.69060   0.00100   430  431  432    112
   432  -9.07501  -9.99500  10.57500   0.25495   78.69008-179.69060   0.00100   431  432  433    112
   433  -9.12501  -9.99527  10.82500   0.25495   78.69008-179.69060   0.00100   432  433  434    112
   434  -9.17501  -9.99554  11.07500   0.25495   78.69008-179.69060   0.00100   433  434  435    112
   435  -9.22501  -9.99582  11.32500   0.25495   78.69008-179.69060   0.00100   434  435  436    112
   436  -9.27501  -9.99609  11.57500   0.25495   78.69008-179.69060   0.00100   435  436  437    112
   437  -9.32501  -9.99635  11.82500   0.25495   78.69008-179.69060   0.00100   436  437  438    112
   438  -9.37501  -9.99662  12.07500   0.25495   78.69008-179.69060   0.00100   437  438  439    112
   439  -9.42501  -9.99690  12.32500   0.25495   78.69008-179.69060   0.00100   438  439  440    112
   440  -9.47501  -9.99716  12.57500   0.25495   78.69008-179.69060   0.00100   439  440  441    112
   441  -9.52501  -9.99743  12.82500   0.25495   78.69008-179.69060   0.00100   440  441  442    112
   442  -9.57501  -9.99770  13.07500   0.25495   78.69008-179.69060   0.00100   441  442  443    112
   443  -9.62501  -9.99798  13.32500   0.25495   78.69008-179.69060   0.00100   442  443  444    112
   444  -9.67501  -9.99825  13.57500   0.25495   78.69008-179.69060   0.00100   443  444  445    112
   445  -9.72500  -9.99851  13.82500   0.25495   78.69008-179.69060   0.00100   444  445  446    112
   446  -9.77500  -9.99878  14.07500   0.25495   78.69008-179.69060   0.00100   445  446  447    112
   447  -9.82500  -9.99906  14.32500   0.25495   78.69008-179.69060   0.00100   446  447  448    112
   448  -9.87500  -9.99932  14.57500   0.25495   78.69008-179.69060   0.00100   447  448  449    112
   449  -9.92500  -9.99959  14.82500   0.25495   78.69008-179.69060   0.00100   448  449  450    112
   450  -9.97500  -9.99986  15.07500   0.25495   78.69008-179.69060   0.00100   449  450 -525    112
   451  -9.95517 -10.03511   0.39700   0.14768   39.53301 -38.06756   0.00100  -526  451  452    113
   452  -9.86550 -10.10534   0.49100   0.14768   39.53301 -38.06756   0.00100   451  452  453    113
   453  -9.77583 -10.17557   0.58500   0.14768   39.53301 -38.06756   0.00100   452  453  454    113
   454  -9.68616 -10.24580   0.67900   0.14768   39.53301 -38.06756   0.00100   453  454  455    113
   455  -9.59649 -10.31603   0.77300   0.14768   39.53301 -38.06756   0.00100   454  455  456    113
   456  -9.50682 -10.38625   0.86700   0.14768   39.53301 -38.06756   0.00100   455  456  457    113
   457  -9.41715 -10.45648   0.96100   0.14768   39.53301 -38.06756   0.00100   456  457  458    113
   458  -9.32748 -10.52671   1.05500   0.14768   39.53301 -38.06756   0.00100   457  458  459    113
   459  -9.23781 -10.59694   1.14900   0.14768   39.53301 -38.06756   0.00100   458  459  460    113
   460  -9.14814 -10.66717   1.24300   0.14768   39.53301 -38.06756   0.00100   459  460  461    113
   461  -9.05847 -10.73739   1.33700   0.14768   39.53301 -38.06756   0.00100   460  461  462    113
   462  -8.96880 -10.80762   1.43100   0.14768   39.53301 -38.06756   0.00100   461  462  463    113
   463  -8.87913 -10.87785   1.52500   0.14768   39.53301 -38.06756   0.00100   462  463  464    113
   464  -8.78946 -10.94808   1.61900   0.14768   39.53301 -38.06756   0.00100   463  464  465    113
   465  -8.69979 -11.01831   1.71300   0.14768   39.53301 -38.06756   0.00100   464  465  466    113
   466  -8.61012 -11.08853   1.80700   0.14768   39.53301 -38.06756   0.00100   465  466  467    113
   467  -8.52045 -11.15876   1.90100   0.14768   39.53301 -38.06756   0.00100   466  467  468    113
   468  -8.43078 -11.22899   1.99500   0.14768   39.53301 -38.06756   0.00100   467  468  469    113
   469  -8.34111 -11.29922   2.08900   0.14768   39.53301 -38.06756   0.00100   468  469  470    113
   470  -8.25144 -11.36945   2.18300   0.14768   39.53301 -38.06756   0.00100   469  470  471    113
   471  -8.16177 -11.43967   2.27700   0.14768   39.53301 -38.06756   0.00100   470  471  472    113
   472  -8.07210 -11.50990   2.37100   0.14768   39.53301 -38.06756   0.00100   471  472  473    113
   473  -7.98243 -11.58013   2.46500   0.14768   39.53301 -38.06756   0.00100   472  473  474    113
   474  -7.89276 -11.65036   2.55900   0.14768   39.53301 -38.06756   0.00100   473  474  475    113
   475  -7.80309 -11.72059   2.65300   0.14768   39.53301 -38.06756   0.00100   474  475  476    113
   476  -7.78068 -11.73814   2.82500   0.25640   77.16730 141.93244   0.00100   475  476  477    114
   477  -7.82551 -11.70303   3.07500   0.25640   77.16730 141.93244   0.00100   476  477  478    114
   478  -7.87035 -11.66791   3.32500   0.25640   77.16730 141.93244   0.00100   477  478  479    114
   479  -7.91518 -11.63280   3.57500   0.25640   77.16730 141.93244   0.00100   478  479  480    114
   480  -7.96002 -11.59769   3.82500   0.25640   77.16730 141.93244   0.00100   479  480  481    114
   481  -8.00485 -11.56257   4.07500   0.25640   77.16730 141.93244   0.00100   480  481  482    114
   482  -8.04969 -11.52746   4.32500   0.25640   77.16730 141.93244   0.00100   481  482  483    114
   483  -8.09452 -11.49234   4.57500   0.25640   77.16730 141.93244   0.00100   482  483  484    114
   484  -8.13936 -11.45723   4.82500   0.25640   77.16730 141.93244   0.00100   483  484  485    114
   485  -8.18419 -11.42212   5.07500   0.25640   77.16730 141.93244   0.00100   484  485  486    114
   486  -8.22903 -11.38700   5.32500   0.25640   77.16730 141.93244   0.00100   485  486  487    114
   487  -8.27386 -11.35189   5.57500   0.25640   77.16730 141.93244   0.00100   486  487  488    114
   488  -8.31870 -11.31678   5.82500   0.25640   77.16730 141.93244   0.00100   487  488  489    114
   489  -8.36353 -11.28166   6.07500   0.25640   77.16730 141.93244   0.00100   488  489  490    114
   490  -8.40836 -11.24655   6.32500   0.25640   77.16730 141.93244   0.00100   489  490  491    114
   491  -8.45320 -11.21143   6.57500   0.25640   77.16730 141.93244   0.00100   490  491  492    114
   492  -8.49803 -11.17632   6.82500   0.25640   77.16730 141.93244   0.00100   491  492  493    114
   493  -8.54287 -11.14120   7.07500   0.25640   77.16730 141.93244   0.00100   492  493  494    114
   494  -8.58770 -11.10609   7.32500   0.25640   77.16730 141.93244   0.00100   493  494  495    114
   495  -8.63254 -11.07098   7.57500   0.25640   77.16730 141.93244   0.00100   494  495  496    114
   496  -8.67737 -11.03586   7.82500   0.25640   77.16730 141.93244   0.00100   495  496  497    114
   497  -8.72221 -11.00075   8.07500   0.25640   77.16730 141.93244   0.00100   496  497  498    114
   498  -8.76704 -10.96563   8.32500   0.25640   77.16730 141.93244   0.00100   497  498  499    114
   499  -8.81188 -10.93052   8.57500   0.25640   77.16730 141.93244   0.00100   498  499  500    114
   500  -8.85671 -10.89541   8.82500   0.25640   77.16730 141.93244   0.00100   499  500  501    114
   501  -8.90155 -10.86029   9.07500   0.25640   77.16730 141.93244   0.00100   500  501  502    114
   502  -8.94638 -10.82518   9.32500   0.25640   77.16730 141.93244   0.00100   501  502  503    114
   503  -8.99122 -10.79007   9.57500   0.25640   77.16730 141.93244   0.00100   502  503  504    114
   504  -9.03605 -10.75495   9.82500   0.25640   77.16730 141.93244   0.00100   503  504  505    114
   505  -9.08089 -10.71984  10.07500   0.25640   77.16730 141.93244   0.00100   504  505  506    114
   506  -9.12572 -10.68472  10.32500   0.25640   77.16730 141.93244   0.00100   505  506  507    114
   507  -9.17056 -10.64961  10.57500   0.25640   77.16730 141.93244   0.00100   506  507  508    114
   508  -9.21539 -10.61450  10.82500   0.25640   77.16730 141.93244   0.00100   507  508  509    114
   509  -9.26023 -10.57938  11.07500   0.25640   77.16730 141.93244   0.00100   508  509  510    114
   510  -9.30506 -10.54427  11.32500   0.25640   77.16730 141.93244   0.00100   509  510  511    114
   511  -9.34990 -10.50915  11.57500   0.25640   77.16730 141.93244   0.00100   510  511  512    114
   512  -9.39473 -10.47404  11.82500   0.25640   77.16730 141.93244   0.00100   511  512  513    114
   513  -9.43957 -10.43892  12.07500   0.25640   77.16730 141.93244   0.00100   512  513  514    114
   514  -9.48440 -10.40381  12.32500   0.25640   77.16730 141.93244   0.00100   513  514  515    114
   515  -9.52923 -10.36870  12.57500   0.25640   77.16730 141.93244   0.00100   514  515  516    114
   516  -9.57407 -10.33358  12.82500   0.25640   77.16730 141.93244   0.00100   515  516  517    114
   517  -9.61890 -10.29847  13.07500   0.25640   77.16730 141.93244   0.00100   516  517  518    114
   518  -9.66374 -10.26336  13.32500   0.25640   77.16730 141.93244   0.00100   517  518  519    114
   519  -9.70857 -10.22824  13.57500   0.25640   77.16730 141.93244   0.00100   518  519  520    114
   520  -9.75341 -10.19313  13.82500   0.25640   77.16730 141.93244   0.00100   519  520  521    114
   521  -9.79824 -10.15801  14.07500   0.25640   77.16730 141.93244   0.00100   520  521  522    114
   522  -9.84308 -10.12290  14.32500   0.25640   77.16730 141.93244   0.00100   521  522  523    114
   523  -9.88791 -10.08779  14.57500   0.25640   77.16730 141.93244   0.00100   522  523  524    114
   524  -9.93275 -10.05267  14.82500   0.25640   77.16730 141.93244   0.00100   523  524  525    114
   525  -9.97758 -10.01756  15.07500   0.25640   77.16730 141.93244   0.00100   524  525 -600    114
   526  -9.99973 -10.05000   0.39700   0.13725   43.22811 -89.69061   0.00100   603  526  527    115
   527  -9.99919 -10.15000   0.49100   0.13725   43.22811 -89.69061   0.00100   526  527  528    115
   528  -9.99865 -10.25000   0.58500   0.13725   43.22811 -89.69061   0.00100   527  528  529    115
   529  -9.99811 -10.35000   0.67900   0.13725   43.22811 -89.69061   0.00100   528  529  530    115
   530  -9.99757 -10.45000   0.77300   0.13725   43.22811 -89.69061   0.00100   529  530  531    115
   531  -9.99703 -10.55000   0.86700   0.13725   43.22811 -89.69061   0.00100   530  531  532    115
   532  -9.99649 -10.65000   0.96100   0.13725   43.22811 -89.69061   0.00100   531  532  533    115
   533  -9.99595 -10.75000   1.05500   0.13725   43.22811 -89.69061   0.00100   532  533  534    115
   534  -9.99541 -10.85000   1.14900   0.13725   43.22811 -89.69061   0.00100   533  534  535    115
   535  -9.99487 -10.95000   1.24300   0.13725   43.22811 -89.69061   0.00100   534  535  536    115
   536  -9.99433 -11.05000   1.33700   0.13725   43.22811 -89.69061   0.00100   535  536  537    115
   537  -9.99379 -11.15000   1.43100   0.13725   43.22811 -89.69061   0.00100   536  537  538    115
   538  -9.99325 -11.25000   1.52500   0.13725   43.22811 -89.69061   0.00100   537  538  539    115
   539  -9.99271 -11.35000   1.61900   0.13725   43.22811 -89.69061   0.00100   538  539  540    115
   540  -9.99217 -11.45000   1.71300   0.13725   43.22811 -89.69061   0.00100   539  540  541    115
   541  -9.99163 -11.55000   1.80700   0.13725   43.22811 -89.69061   0.00100   540  541  542    115
   542  -9.99109 -11.65000   1.90100   0.13725   43.22811 -89.69061   0.00100   541  542  543    115
   543  -9.99055 -11.75000   1.99500   0.13725   43.22811 -89.69061   0.00100   542  543  544    115
   544  -9.99001 -11.85000   2.08900   0.13725   43.22811 -89.69061   0.00100   543  544  545    115
   545  -9.98947 -11.95000   2.18300   0.13725   43.22811 -89.69061   0.00100   544  545  546    115
   546  -9.98893 -12.05000   2.27700   0.13725   43.22811 -89.69061   0.00100   545  546  547    115
   547  -9.98839 -12.15000   2.37100   0.13725   43.22811 -89.69061   0.00100   546  547  548    115
   548  -9.98785 -12.25000   2.46500   0.13725   43.22811 -89.69061   0.00100   547  548  549    115
   549  -9.98731 -12.35000   2.55900   0.13725   43.22811 -89.69061   0.00100   548  549  550    115
   550  -9.98677 -12.45000   2.65300   0.13725   43.22811 -89.69061   0.00100   549  550  551    115
   551  -9.98663 -12.47500   2.82500   0.25495   78.68991  90.30939   0.00100   550  551  552    116
   552  -9.98691 -12.42500   3.07500   0.25495   78.68991  90.30939   0.00100   551  552  553    116
   553  -9.98718 -12.37500   3.32500   0.25495   78.68991  90.30939   0.00100   552  553  554    116
   554  -9.98744 -12.32500   3.57500   0.25495   78.68991  90.30939   0.00100   553  554  555    116
   555  -9.98771 -12.27500   3.82500   0.25495   78.68991  90.30939   0.00100   554  555  556    116
   556  -9.98799 -12.22500   4.07500   0.25495   78.68991  90.30939   0.00100   555  556  557    116
   557  -9.98825 -12.17500   4.32500   0.25495   78.68991  90.30939   0.00100   556  557  558    116
   558  -9.98852 -12.12500   4.57500   0.25495   78.68991  90.30939   0.00100   557  558  559    116
   559  -9.98879 -12.07500   4.82500   0.25495   78.68991  90.30939   0.00100   558  559  560    116
   560  -9.98907 -12.02500   5.07500   0.25495   78.68991  90.30939   0.00100   559  560  561    116
   561  -9.98934 -11.97500   5.32500   0.25495   78.68991  90.30939   0.00100   560  561  562    116
   562  -9.98960 -11.92500   5.57500   0.25495   78.68991  90.30939   0.00100   561  562  563    116
   563  -9.98987 -11.87500   5.82500   0.25495   78.68991  90.30939   0.00100   562  563  564    116
   564  -9.99015 -11.82500   6.07500   0.25495   78.68991  90.30939   0.00100   563  564  565    116
   565  -9.99041 -11.77500   6.32500   0.25495   78.68991  90.30939   0.00100   564  565  566    116
   566  -9.99068 -11.72500   6.57500   0.25495   78.68991  90.30939   0.00100   565  566  567    116
   567  -9.99095 -11.67500   6.82500   0.25495   78.68991  90.30939   0.00100   566  567  568    116
   568  -9.99123 -11.62500   7.07500   0.25495   78.68991  90.30939   0.00100   567  568  569    116
   569  -9.99150 -11.57500   7.32500   0.25495   78.68991  90.30939   0.00100   568  569  570    116
   570  -9.99176 -11.52500   7.57500   0.25495   78.68991  90.30939   0.00100   569  570  571    116
   571  -9.99203 -11.47500   7.82500   0.25495   78.68991  90.30939   0.00100   570  571  572    116
   572  -9.99231 -11.42500   8.07500   0.25495   78.68991  90.30939   0.00100   571  572  573    116
   573  -9.99257 -11.37500   8.32500   0.25495   78.68991  90.30939   0.00100   572  573  574    116
   574  -9.99284 -11.32500   8.57500   0.25495   78.68991  90.30939   0.00100   573  574  575    116
   575  -9.99311 -11.27500   8.82500   0.25495   78.68991  90.30939   0.00100   574  575  576    116
   576  -9.99339 -11.22500   9.07500   0.25495   78.68991  90.30939   0.00100   575  576  577    116
   577  -9.99366 -11.17500   9.32500   0.25495   78.68991  90.30939   0.00100   576  577  578    116
   578  -9.99393 -11.12500   9.57500   0.25495   78.68991  90.30939   0.00100   577  578  579    116
   579  -9.99419 -11.07500   9.82500   0.25495   78.68991  90.30939   0.00100   578  579  580    116
   580  -9.99446 -11.02500  10.07500   0.25495   78.68991  90.30939   0.00100   579  580  581    116
   581  -9.99474 -10.97500  10.32500   0.25495   78.68991  90.30939   0.00100   580  581  582    116
   582  -9.99500 -10.92500  10.57500   0.25495   78.68991  90.30939   0.00100   581  582  583    116
   583  -9.99527 -10.87500  10.82500   0.25495   78.68991  90.30939   0.00100   582  583  584    116
   584  -9.99554 -10.82500  11.07500   0.25495   78.68991  90.30939   0.00100   583  584  585    116
   585  -9.99582 -10.77500  11.32500   0.25495   78.68991  90.30939   0.00100   584  585  586    116
   586  -9.99609 -10.72500  11.57500   0.25495   78.68991  90.30939   0.00100   585  586  587    116
   587  -9.99635 -10.67500  11.82500   0.25495   78.68991  90.30939   0.00100   586  587  588    116
   588  -9.99662 -10.62500  12.07500   0.25495   78.68991  90.30939   0.00100   587  588  589    116
   589  -9.99690 -10.57500  12.32500   0.25495   78.68991  90.30939   0.00100   588  589  590    116
   590  -9.99716 -10.52500  12.57500   0.25495   78.68991  90.30939   0.00100   589  590  591    116
   591  -9.99743 -10.47500  12.82500   0.25495   78.68991  90.30939   0.00100   590  591  592    116
   592  -9.99770 -10.42500  13.07500   0.25495   78.68991  90.30939   0.00100   591  592  593    116
   593  -9.99798 -10.37500  13.32500   0.25495   78.68991  90.30939   0.00100   592  593  594    116
   594  -9.99825 -10.32500  13.57500   0.25495   78.68991  90.30939   0.00100   593  594  595    116
   595  -9.99851 -10.27500  13.82500   0.25495   78.68991  90.30939   0.00100   594  595  596    116
   596  -9.99878 -10.22500  14.07500   0.25495   78.68991  90.30939   0.00100   595  596  597    116
   597  -9.99906 -10.17500  14.32500   0.25495   78.68991  90.30939   0.00100   596  597  598    116
   598  -9.99932 -10.12500  14.57500   0.25495   78.68991  90.30939   0.00100   597  598  599    116
   599  -9.99959 -10.07500  14.82500   0.25495   78.68991  90.30939   0.00100   598  599  600    116
   600  -9.99986 -10.02500  15.07500   0.25495   78.68991  90.30939   0.00100   599  600  -75    116
   601 -10.00000 -10.00000   0.22500   0.05000   90.00000   0.00000   0.00100  -604  601  602    117
   602 -10.00000 -10.00000   0.27500   0.05000   90.00000   0.00000   0.00100   601  602  603    117
   603 -10.00000 -10.00000   0.32500   0.05000   90.00000   0.00000   0.00100   602  603    1    117
   604  -9.99986 -10.02500   0.20000   0.05000    0.00000 -89.69061   0.00100  -658  604  605    118
   605  -9.99959 -10.07500   0.20000   0.05000    0.00000 -89.69061   0.00100   604  605  606    118
   606  -9.99932 -10.12500   0.20000   0.05000    0.00000 -89.69061   0.00100   605  606  607    118
   607  -9.99906 -10.17500   0.20000   0.05000    0.00000 -89.69061   0.00100   606  607  608    118
   608  -9.99812 -10.34800   0.20000   0.29600    0.00000 -89.69072   0.00100   607  608  609    119
   609  -9.99652 -10.64399   0.20000   0.29600    0.00000 -89.69072   0.00100   608  609  610    119
   610  -9.99493 -10.93999   0.20000   0.29600    0.00000 -89.69072   0.00100   609  610  611    119
   611  -9.99333 -11.23599   0.20000   0.29600    0.00000 -89.69072   0.00100   610  611  612    119
   612  -9.99173 -11.53198   0.20000   0.29600    0.00000 -89.69072   0.00100   611  612  613    119
   613  -9.99013 -11.82798   0.20000   0.29600    0.00000 -89.69072   0.00100   612  613  614    119
   614  -9.98853 -12.12397   0.20000   0.29600    0.00000 -89.69072   0.00100   613  614  615    119
   615  -9.98694 -12.41997   0.20000   0.29600    0.00000 -89.69072   0.00100   614  615  616    119
   616  -9.98534 -12.71597   0.20000   0.29600    0.00000 -89.69072   0.00100   615  616  617    119
   617  -9.98374 -13.01196   0.20000   0.29600    0.00000 -89.69072   0.00100   616  617  618    119
   618  -9.98214 -13.30796   0.20000   0.29600    0.00000 -89.69072   0.00100   617  618  619    119
   619  -9.98055 -13.60395   0.20000   0.29600    0.00000 -89.69072   0.00100   618  619  620    119
   620  -9.97895 -13.89995   0.20000   0.29600    0.00000 -89.69072   0.00100   619  620  621    119
   621  -9.97735 -14.19595   0.20000   0.29600    0.00000 -89.69072   0.00100   620  621  622    119
   622  -9.97575 -14.49194   0.20000   0.29600    0.00000 -89.69072   0.00100   621  622  623    119
   623  -9.97415 -14.78794   0.20000   0.29600    0.00000 -89.69072   0.00100   622  623  624    119
   624  -9.97256 -15.08393   0.20000   0.29600    0.00000 -89.69072   0.00100   623  624  625    119
   625  -9.97096 -15.37993   0.20000   0.29600    0.00000 -89.69072   0.00100   624  625  626    119
   626  -9.96936 -15.67593   0.20000   0.29600    0.00000 -89.69072   0.00100   625  626  627    119
   627  -9.96776 -15.97192   0.20000   0.29600    0.00000 -89.69072   0.00100   626  627  628    119
   628  -9.96617 -16.26792   0.20000   0.29600    0.00000 -89.69072   0.00100   627  628  629    119
   629  -9.96457 -16.56391   0.20000   0.29600    0.00000 -89.69072   0.00100   628  629  630    119
   630  -9.96297 -16.85991   0.20000   0.29600    0.00000 -89.69072   0.00100   629  630  631    119
   631  -9.96137 -17.15591   0.20000   0.29600    0.00000 -89.69072   0.00100   630  631  632    119
   632  -9.95977 -17.45190   0.20000   0.29600    0.00000 -89.69072   0.00100   631  632  633    119
   633  -9.95818 -17.74790   0.20000   0.29600    0.00000 -89.69072   0.00100   632  633  634    119
   634  -9.95658 -18.04389   0.20000   0.29600    0.00000 -89.69072   0.00100   633  634  635    119
   635  -9.95498 -18.33989   0.20000   0.29600    0.00000 -89.69072   0.00100   634  635  636    119
   636  -9.95338 -18.63589   0.20000   0.29600    0.00000 -89.69072   0.00100   635  636  637    119
[...]
  3530  15.90175  18.21600   0.20000   0.29600    0.00000  54.30963   0.00100  3529 3530 3531    210
  3531  16.07444  18.45641   0.20000   0.29600    0.00000  54.30963   0.00100  3530 3531 3532    210
  3532  16.24712  18.69681   0.20000   0.29600    0.00000  54.30963   0.00100  3531 3532 3533    210
  3533  16.41981  18.93722   0.20000   0.29600    0.00000  54.30963   0.00100  3532 3533 3534    210
  3534  16.59250  19.17762   0.20000   0.29600    0.00000  54.30963   0.00100  3533 3534 3535    210
  3535  16.76519  19.41803   0.20000   0.29600    0.00000  54.30963   0.00100  3534 3535 3536    210
  3536  16.93788  19.65844   0.20000   0.29600    0.00000  54.30963   0.00100  3535 3536 3537    210
  3537  17.11056  19.89884   0.20000   0.29600    0.00000  54.30963   0.00100  3536 3537 3538    210
  3538  17.28325  20.13925   0.20000   0.29600    0.00000  54.30963   0.00100  3537 3538 3539    210
  3539  17.45594  20.37966   0.20000   0.29600    0.00000  54.30963   0.00100  3538 3539 3540    210
  3540  17.62863  20.62006   0.20000   0.29600    0.00000  54.30963   0.00100  3539 3540 3541    210
  3541  17.80132  20.86047   0.20000   0.29600    0.00000  54.30963   0.00100  3540 3541 3542    210
  3542  17.97400  21.10087   0.20000   0.29600    0.00000  54.30963   0.00100  3541 3542 3543    210
  3543  18.14669  21.34128   0.20000   0.29600    0.00000  54.30963   0.00100  3542 3543 3544    210
  3544  18.31938  21.58169   0.20000   0.29600    0.00000  54.30963   0.00100  3543 3544 3545    210
  3545  18.49207  21.82209   0.20000   0.29600    0.00000  54.30963   0.00100  3544 3545 3546    210
  3546  18.66476  22.06250   0.20000   0.29600    0.00000  54.30963   0.00100  3545 3546    0    210
  3547  10.02015  10.01480   0.20000   0.05000    0.00000  36.29696   0.00100 -3601 3547 3548    211
  3548  10.06045  10.04440   0.20000   0.05000    0.00000  36.29696   0.00100  3547 3548 3549    211
  3549  10.10075  10.07400   0.20000   0.05000    0.00000  36.29696   0.00100  3548 3549 3550    211
  3550  10.14105  10.10360   0.20000   0.05000    0.00000  36.29696   0.00100  3549 3550 3551    211
  3551  10.28030  10.23604   0.20000   0.33480    0.00000  44.64568   0.00100  3550 3551 3552    212
  3552  10.51850  10.47131   0.20000   0.33480    0.00000  44.64568   0.00100  3551 3552 3553    212
  3553  10.75671  10.70659   0.20000   0.33480    0.00000  44.64568   0.00100  3552 3553 3554    212
  3554  10.99491  10.94186   0.20000   0.33480    0.00000  44.64568   0.00100  3553 3554 3555    212
  3555  11.23311  11.17713   0.20000   0.33480    0.00000  44.64568   0.00100  3554 3555 3556    212
  3556  11.47131  11.41241   0.20000   0.33480    0.00000  44.64568   0.00100  3555 3556 3557    212
  3557  11.70951  11.64768   0.20000   0.33480    0.00000  44.64568   0.00100  3556 3557 3558    212
  3558  11.94771  11.88295   0.20000   0.33480    0.00000  44.64568   0.00100  3557 3558 3559    212
  3559  12.18592  12.11823   0.20000   0.33480    0.00000  44.64568   0.00100  3558 3559 3560    212
  3560  12.42412  12.35350   0.20000   0.33480    0.00000  44.64568   0.00100  3559 3560 3561    212
  3561  12.66232  12.58878   0.20000   0.33480    0.00000  44.64568   0.00100  3560 3561 3562    212
  3562  12.90052  12.82405   0.20000   0.33480    0.00000  44.64568   0.00100  3561 3562 3563    212
  3563  13.13873  13.05932   0.20000   0.33480    0.00000  44.64568   0.00100  3562 3563 3564    212
  3564  13.37693  13.29460   0.20000   0.33480    0.00000  44.64568   0.00100  3563 3564 3565    212
  3565  13.61513  13.52987   0.20000   0.33480    0.00000  44.64568   0.00100  3564 3565 3566    212
  3566  13.85333  13.76515   0.20000   0.33480    0.00000  44.64568   0.00100  3565 3566 3567    212
  3567  14.09153  14.00042   0.20000   0.33480    0.00000  44.64568   0.00100  3566 3567 3568    212
  3568  14.32973  14.23570   0.20000   0.33480    0.00000  44.64568   0.00100  3567 3568 3569    212
  3569  14.56794  14.47097   0.20000   0.33480    0.00000  44.64568   0.00100  3568 3569 3570    212
  3570  14.80614  14.70624   0.20000   0.33480    0.00000  44.64568   0.00100  3569 3570 3571    212
  3571  15.04434  14.94152   0.20000   0.33480    0.00000  44.64568   0.00100  3570 3571 3572    212
  3572  15.28254  15.17679   0.20000   0.33480    0.00000  44.64568   0.00100  3571 3572 3573    212
  3573  15.52075  15.41207   0.20000   0.33480    0.00000  44.64568   0.00100  3572 3573 3574    212
  3574  15.75895  15.64734   0.20000   0.33480    0.00000  44.64568   0.00100  3573 3574 3575    212
  3575  15.99715  15.88261   0.20000   0.33480    0.00000  44.64568   0.00100  3574 3575 3576    212
  3576  16.23535  16.11789   0.20000   0.33480    0.00000  44.64568   0.00100  3575 3576 3577    212
  3577  16.47355  16.35316   0.20000   0.33480    0.00000  44.64568   0.00100  3576 3577 3578    212
  3578  16.71176  16.58844   0.20000   0.33480    0.00000  44.64568   0.00100  3577 3578 3579    212
  3579  16.94996  16.82371   0.20000   0.33480    0.00000  44.64568   0.00100  3578 3579 3580    212
  3580  17.18816  17.05898   0.20000   0.33480    0.00000  44.64568   0.00100  3579 3580 3581    212
  3581  17.42636  17.29426   0.20000   0.33480    0.00000  44.64568   0.00100  3580 3581 3582    212
  3582  17.66456  17.52953   0.20000   0.33480    0.00000  44.64568   0.00100  3581 3582 3583    212
  3583  17.90277  17.76481   0.20000   0.33480    0.00000  44.64568   0.00100  3582 3583 3584    212
  3584  18.14097  18.00008   0.20000   0.33480    0.00000  44.64568   0.00100  3583 3584 3585    212
  3585  18.37917  18.23535   0.20000   0.33480    0.00000  44.64568   0.00100  3584 3585 3586    212
  3586  18.61737  18.47063   0.20000   0.33480    0.00000  44.64568   0.00100  3585 3586 3587    212
  3587  18.85557  18.70590   0.20000   0.33480    0.00000  44.64568   0.00100  3586 3587 3588    212
  3588  19.09378  18.94118   0.20000   0.33480    0.00000  44.64568   0.00100  3587 3588 3589    212
  3589  19.33198  19.17645   0.20000   0.33480    0.00000  44.64568   0.00100  3588 3589 3590    212
  3590  19.57018  19.41172   0.20000   0.33480    0.00000  44.64568   0.00100  3589 3590 3591    212
  3591  19.80838  19.64700   0.20000   0.33480    0.00000  44.64568   0.00100  3590 3591 3592    212
  3592  20.04658  19.88227   0.20000   0.33480    0.00000  44.64568   0.00100  3591 3592 3593    212
  3593  20.28478  20.11755   0.20000   0.33480    0.00000  44.64568   0.00100  3592 3593 3594    212
  3594  20.52299  20.35282   0.20000   0.33480    0.00000  44.64568   0.00100  3593 3594 3595    212
  3595  20.76119  20.58809   0.20000   0.33480    0.00000  44.64568   0.00100  3594 3595 3596    212
  3596  20.99939  20.82337   0.20000   0.33480    0.00000  44.64568   0.00100  3595 3596 3597    212
  3597  21.23759  21.05864   0.20000   0.33480    0.00000  44.64568   0.00100  3596 3597 3598    212
  3598  21.47579  21.29391   0.20000   0.33480    0.00000  44.64568   0.00100  3597 3598 3599    212
  3599  21.71400  21.52919   0.20000   0.33480    0.00000  44.64568   0.00100  3598 3599 3600    212
  3600  21.95220  21.76446   0.20000   0.33480    0.00000  44.64568   0.00100  3599 3600    0    212
  3601  10.02374  10.00785   0.20000   0.05000    0.00000  18.29907   0.00100 -3655 3601 3602    213
  3602  10.07121  10.02355   0.20000   0.05000    0.00000  18.29907   0.00100  3601 3602 3603    213
  3603  10.11869  10.03925   0.20000   0.05000    0.00000  18.29907   0.00100  3602 3603 3604    213
  3604  10.16616  10.05495   0.20000   0.05000    0.00000  18.29907   0.00100  3603 3604 3605    213
  3605  10.33041  10.10929   0.20000   0.29600    0.00000  18.30947   0.00100  3604 3605 3606    214
  3606  10.61142  10.20228   0.20000   0.29600    0.00000  18.30947   0.00100  3605 3606 3607    214
  3607  10.89243  10.29527   0.20000   0.29600    0.00000  18.30947   0.00100  3606 3607 3608    214
  3608  11.17345  10.38826   0.20000   0.29600    0.00000  18.30947   0.00100  3607 3608 3609    214
  3609  11.45446  10.48125   0.20000   0.29600    0.00000  18.30947   0.00100  3608 3609 3610    214
  3610  11.73548  10.57423   0.20000   0.29600    0.00000  18.30947   0.00100  3609 3610 3611    214
  3611  12.01649  10.66722   0.20000   0.29600    0.00000  18.30947   0.00100  3610 3611 3612    214
  3612  12.29751  10.76021   0.20000   0.29600    0.00000  18.30947   0.00100  3611 3612 3613    214
  3613  12.57852  10.85320   0.20000   0.29600    0.00000  18.30947   0.00100  3612 3613 3614    214
  3614  12.85953  10.94619   0.20000   0.29600    0.00000  18.30947   0.00100  3613 3614 3615    214
  3615  13.14055  11.03917   0.20000   0.29600    0.00000  18.30947   0.00100  3614 3615 3616    214
  3616  13.42156  11.13216   0.20000   0.29600    0.00000  18.30947   0.00100  3615 3616 3617    214
  3617  13.70258  11.22515   0.20000   0.29600    0.00000  18.30947   0.00100  3616 3617 3618    214
  3618  13.98359  11.31814   0.20000   0.29600    0.00000  18.30947   0.00100  3617 3618 3619    214
  3619  14.26460  11.41113   0.20000   0.29600    0.00000  18.30947   0.00100  3618 3619 3620    214
  3620  14.54562  11.50411   0.20000   0.29600    0.00000  18.30947   0.00100  3619 3620 3621    214
  3621  14.82663  11.59710   0.20000   0.29600    0.00000  18.30947   0.00100  3620 3621 3622    214
  3622  15.10765  11.69009   0.20000   0.29600    0.00000  18.30947   0.00100  3621 3622 3623    214
  3623  15.38866  11.78308   0.20000   0.29600    0.00000  18.30947   0.00100  3622 3623 3624    214
  3624  15.66967  11.87607   0.20000   0.29600    0.00000  18.30947   0.00100  3623 3624 3625    214
  3625  15.95069  11.96905   0.20000   0.29600    0.00000  18.30947   0.00100  3624 3625 3626    214
  3626  16.23170  12.06204   0.20000   0.29600    0.00000  18.30947   0.00100  3625 3626 3627    214
  3627  16.51272  12.15503   0.20000   0.29600    0.00000  18.30947   0.00100  3626 3627 3628    214
  3628  16.79373  12.24802   0.20000   0.29600    0.00000  18.30947   0.00100  3627 3628 3629    214
  3629  17.07474  12.34101   0.20000   0.29600    0.00000  18.30947   0.00100  3628 3629 3630    214
  3630  17.35576  12.43399   0.20000   0.29600    0.00000  18.30947   0.00100  3629 3630 3631    214
  3631  17.63677  12.52698   0.20000   0.29600    0.00000  18.30947   0.00100  3630 3631 3632    214
  3632  17.91779  12.61997   0.20000   0.29600    0.00000  18.30947   0.00100  3631 3632 3633    214
  3633  18.19880  12.71296   0.20000   0.29600    0.00000  18.30947   0.00100  3632 3633 3634    214
  3634  18.47981  12.80595   0.20000   0.29600    0.00000  18.30947   0.00100  3633 3634 3635    214
  3635  18.76083  12.89893   0.20000   0.29600    0.00000  18.30947   0.00100  3634 3635 3636    214
  3636  19.04184  12.99192   0.20000   0.29600    0.00000  18.30947   0.00100  3635 3636 3637    214
  3637  19.32286  13.08491   0.20000   0.29600    0.00000  18.30947   0.00100  3636 3637 3638    214
  3638  19.60387  13.17790   0.20000   0.29600    0.00000  18.30947   0.00100  3637 3638 3639    214
  3639  19.88488  13.27089   0.20000   0.29600    0.00000  18.30947   0.00100  3638 3639 3640    214
  3640  20.16590  13.36387   0.20000   0.29600    0.00000  18.30947   0.00100  3639 3640 3641    214
  3641  20.44691  13.45686   0.20000   0.29600    0.00000  18.30947   0.00100  3640 3641 3642    214
  3642  20.72792  13.54985   0.20000   0.29600    0.00000  18.30947   0.00100  3641 3642 3643    214
  3643  21.00894  13.64284   0.20000   0.29600    0.00000  18.30947   0.00100  3642 3643 3644    214
  3644  21.28995  13.73583   0.20000   0.29600    0.00000  18.30947   0.00100  3643 3644 3645    214
  3645  21.57097  13.82881   0.20000   0.29600    0.00000  18.30947   0.00100  3644 3645 3646    214
  3646  21.85198  13.92180   0.20000   0.29600    0.00000  18.30947   0.00100  3645 3646 3647    214
  3647  22.13300  14.01479   0.20000   0.29600    0.00000  18.30947   0.00100  3646 3647 3648    214
  3648  22.41401  14.10778   0.20000   0.29600    0.00000  18.30947   0.00100  3647 3648 3649    214
  3649  22.69502  14.20077   0.20000   0.29600    0.00000  18.30947   0.00100  3648 3649 3650    214
  3650  22.97604  14.29375   0.20000   0.29600    0.00000  18.30947   0.00100  3649 3650 3651    214
  3651  23.25705  14.38674   0.20000   0.29600    0.00000  18.30947   0.00100  3650 3651 3652    214
  3652  23.53807  14.47973   0.20000   0.29600    0.00000  18.30947   0.00100  3651 3652 3653    214
  3653  23.81908  14.57272   0.20000   0.29600    0.00000  18.30947   0.00100  3652 3653 3654    214
  3654  24.10009  14.66571   0.20000   0.29600    0.00000  18.30947   0.00100  3653 3654    0    214
  3655  10.02500  10.00014   0.20000   0.05000    0.00000   0.31512   0.00100 -3382 3655 3656    215
  3656  10.07500  10.00041   0.20000   0.05000    0.00000   0.31512   0.00100  3655 3656 3657    215
  3657  10.12500  10.00069   0.20000   0.05000    0.00000   0.31512   0.00100  3656 3657 3658    215
  3658  10.17500  10.00096   0.20000   0.05000    0.00000   0.31512   0.00100  3657 3658 3659    215
  3659  10.34800  10.00190   0.20000   0.29600    0.00000   0.30932   0.00100  3658 3659 3660    216
  3660  10.64399  10.00350   0.20000   0.29600    0.00000   0.30932   0.00100  3659 3660 3661    216
  3661  10.93999  10.00510   0.20000   0.29600    0.00000   0.30932   0.00100  3660 3661 3662    216
  3662  11.23599  10.00669   0.20000   0.29600    0.00000   0.30932   0.00100  3661 3662 3663    216
  3663  11.53198  10.00829   0.20000   0.29600    0.00000   0.30932   0.00100  3662 3663 3664    216
  3664  11.82798  10.00989   0.20000   0.29600    0.00000   0.30932   0.00100  3663 3664 3665    216
  3665  12.12397  10.01149   0.20000   0.29600    0.00000   0.30932   0.00100  3664 3665 3666    216
  3666  12.41997  10.01309   0.20000   0.29600    0.00000   0.30932   0.00100  3665 3666 3667    216
  3667  12.71597  10.01468   0.20000   0.29600    0.00000   0.30932   0.00100  3666 3667 3668    216
  3668  13.01196  10.01628   0.20000   0.29600    0.00000   0.30932   0.00100  3667 3668 3669    216
  3669  13.30796  10.01788   0.20000   0.29600    0.00000   0.30932   0.00100  3668 3669 3670    216
  3670  13.60395  10.01948   0.20000   0.29600    0.00000   0.30932   0.00100  3669 3670 3671    216
  3671  13.89995  10.02108   0.20000   0.29600    0.00000   0.30932   0.00100  3670 3671 3672    216
  3672  14.19595  10.02267   0.20000   0.29600    0.00000   0.30932   0.00100  3671 3672 3673    216
  3673  14.49194  10.02427   0.20000   0.29600    0.00000   0.30932   0.00100  3672 3673 3674    216
  3674  14.78794  10.02587   0.20000   0.29600    0.00000   0.30932   0.00100  3673 3674 3675    216
  3675  15.08393  10.02747   0.20000   0.29600    0.00000   0.30932   0.00100  3674 3675 3676    216
  3676  15.37993  10.02906   0.20000   0.29600    0.00000   0.30932   0.00100  3675 3676 3677    216
  3677  15.67593  10.03066   0.20000   0.29600    0.00000   0.30932   0.00100  3676 3677 3678    216
  3678  15.97192  10.03226   0.20000   0.29600    0.00000   0.30932   0.00100  3677 3678 3679    216
  3679  16.26792  10.03386   0.20000   0.29600    0.00000   0.30932   0.00100  3678 3679 3680    216
  3680  16.56391  10.03546   0.20000   0.29600    0.00000   0.30932   0.00100  3679 3680 3681    216
  3681  16.85991  10.03705   0.20000   0.29600    0.00000   0.30932   0.00100  3680 3681 3682    216
  3682  17.15591  10.03865   0.20000   0.29600    0.00000   0.30932   0.00100  3681 3682 3683    216
  3683  17.45190  10.04025   0.20000   0.29600    0.00000   0.30932   0.00100  3682 3683 3684    216
  3684  17.74790  10.04185   0.20000   0.29600    0.00000   0.30932   0.00100  3683 3684 3685    216
  3685  18.04389  10.04345   0.20000   0.29600    0.00000   0.30932   0.00100  3684 3685 3686    216
  3686  18.33989  10.04504   0.20000   0.29600    0.00000   0.30932   0.00100  3685 3686 3687    216
  3687  18.63589  10.04664   0.20000   0.29600    0.00000   0.30932   0.00100  3686 3687 3688    216
  3688  18.93188  10.04824   0.20000   0.29600    0.00000   0.30932   0.00100  3687 3688 3689    216
  3689  19.22788  10.04984   0.20000   0.29600    0.00000   0.30932   0.00100  3688 3689 3690    216
  3690  19.52387  10.05144   0.20000   0.29600    0.00000   0.30932   0.00100  3689 3690 3691    216
  3691  19.81987  10.05303   0.20000   0.29600    0.00000   0.30932   0.00100  3690 3691 3692    216
  3692  20.11587  10.05463   0.20000   0.29600    0.00000   0.30932   0.00100  3691 3692 3693    216
  3693  20.41186  10.05623   0.20000   0.29600    0.00000   0.30932   0.00100  3692 3693 3694    216
  3694  20.70786  10.05783   0.20000   0.29600    0.00000   0.30932   0.00100  3693 3694 3695    216
  3695  21.00385  10.05943   0.20000   0.29600    0.00000   0.30932   0.00100  3694 3695 3696    216
  3696  21.29985  10.06103   0.20000   0.29600    0.00000   0.30932   0.00100  3695 3696 3697    216
  3697  21.59585  10.06262   0.20000   0.29600    0.00000   0.30932   0.00100  3696 3697 3698    216
  3698  21.89184  10.06422   0.20000   0.29600    0.00000   0.30932   0.00100  3697 3698 3699    216
  3699  22.18784  10.06582   0.20000   0.29600    0.00000   0.30932   0.00100  3698 3699 3700    216
  3700  22.48383  10.06742   0.20000   0.29600    0.00000   0.30932   0.00100  3699 3700 3701    216
  3701  22.77983  10.06902   0.20000   0.29600    0.00000   0.30932   0.00100  3700 3701 3702    216
  3702  23.07583  10.07061   0.20000   0.29600    0.00000   0.30932   0.00100  3701 3702 3703    216
  3703  23.37182  10.07221   0.20000   0.29600    0.00000   0.30932   0.00100  3702 3703 3704    216
  3704  23.66782  10.07381   0.20000   0.29600    0.00000   0.30932   0.00100  3703 3704 3705    216
  3705  23.96381  10.07541   0.20000   0.29600    0.00000   0.30932   0.00100  3704 3705 3706    216
  3706  24.25981  10.07701   0.20000   0.29600    0.00000   0.30932   0.00100  3705 3706 3707    216
  3707  24.55581  10.07860   0.20000   0.29600    0.00000   0.30932   0.00100  3706 3707 3708    216
  3708  24.85180  10.08020   0.20000   0.29600    0.00000   0.30932   0.00100  3707 3708    0    216






 ***** DATA CARD NO.  1   GN   2     0     0     0  1.00000E+01  1.00000E-02  0.00000E+00  0.00000E+00  0.00000E+00  0.00000E+00
 ***** DATA CARD NO.  2   FR   0     0     0     0  5.00000E+00  0.00000E+00  0.00000E+00  0.00000E+00  0.00000E+00  0.00000E+00
 ***** DATA CARD NO.  3   EX   0   117     2     0  1.00000E-09  0.00000E+00  0.00000E+00  0.00000E+00  0.00000E+00  0.00000E+00
 ***** DATA CARD NO.  4   EX   0   146     2     0  1.00000E-09  0.00000E+00  0.00000E+00  0.00000E+00  0.00000E+00  0.00000E+00
 ***** DATA CARD NO.  5   EX   0   175     2     0  1.00000E-09  0.00000E+00  0.00000E+00  0.00000E+00  0.00000E+00  0.00000E+00
 ***** DATA CARD NO.  6   EX   0   204     2     0  1.00000E+00  0.00000E+00  0.00000E+00  0.00000E+00  0.00000E+00  0.00000E+00
 ***** DATA CARD NO.  7   PT  -1     0     0     0  0.00000E+00  0.00000E+00  0.00000E+00  0.00000E+00  0.00000E+00  0.00000E+00
 ***** DATA CARD NO.  8   RP   0    19    72  1010  0.00000E+00  0.00000E+00  5.00000E+00  5.00000E+00  0.00000E+00  0.00000E+00




                                 - - - - - - FREQUENCY - - - - - -

                                    FREQUENCY= 5.0000E+00 MHZ
                                    WAVELENGTH= 5.9960E+01 METERS




                    APPROXIMATE INTEGRATION EMPLOYED FOR SEGMENTS MORE THAN   1.000 WAVELENGTHS APART



                               - - - STRUCTURE IMPEDANCE LOADING - - -

                                   THIS STRUCTURE IS NOT LOADED



                                  - - - ANTENNA ENVIRONMENT - - -

                                        FINITE GROUND.  SOMMERFELD SOLUTION
                                        RELATIVE DIELECTRIC CONST.= 10.000
                                        CONDUCTIVITY= 1.000E-02 MHOS/METER
                                        COMPLEX DIELECTRIC CONSTANT= 1.00000E+01-3.59520E+01
