1



                                 *********************************************

                                    NUMERICAL ELECTROMAGNETICS CODE (NEC-2D)

                                 *********************************************




                                     - - - - COMMENTS - - - -


                                                                                                     
                                                                                                     




                                 - - - STRUCTURE SPECIFICATION - - -

                                     COORDINATES MUST BE INPUT IN
                                     METERS OR BE SCALED TO METERS
                                     BEFORE STRUCTURE INPUT IS ENDED


  WIRE                                                                               NO. OF    FIRST  LAST     TAG
  NO.        X1         Y1         Z1          X2         Y2         Z2      RADIUS   SEG.     SEG.   SEG.     NO.
     1   -7.50000   -5.00000   -5.00000    -7.50000   -5.00000    5.00000    0.00100     20        1    20     101
     2   -2.50000   -5.00000   -5.00000    -2.50000   -5.00000    5.00000    0.00100     20       21    40     102
     3    2.50000   -5.00000   -5.00000     2.50000   -5.00000    5.00000    0.00100     20       41    60     103
     4    7.50000   -5.00000   -5.00000     7.50000   -5.00000    5.00000    0.00100     20       61    80     104
     5   -7.50000    0.00000   -5.00000    -7.50000    0.00000    5.00000    0.00100     20       81   100     201
     6   -2.50000    0.00000   -5.00000    -2.50000    0.00000    5.00000    0.00100     20      101   120     202
     7    2.50000    0.00000   -5.00000     2.50000    0.00000    5.00000    0.00100     20      121   140     203
     8    7.50000    0.00000   -5.00000     7.50000    0.00000    5.00000    0.00100     20      141   160     204
     9   -7.50000    5.00000   -5.00000    -7.50000    5.00000    5.00000    0.00100     20      161   180     301
    10   -2.50000    5.00000   -5.00000    -2.50000    5.00000    5.00000    0.00100     20      181   200     302
    11    2.50000    5.00000   -5.00000     2.50000    5.00000    5.00000    0.00100     20      201   220     303
    12    7.50000    5.00000   -5.00000     7.50000    5.00000    5.00000    0.00100     20      221   240     304

   TOTAL SEGMENTS USED=  240     NO. SEG. IN A SYMMETRIC CELL=  240     SYMMETRY FLAG=  0


         - MULTIPLE WIRE JUNCTIONS -
 JUNCTION    SEGMENTS  (- FOR END 1, + FOR END 2)
  NONE




                                 - - - - SEGMENTATION DATA - - - -

                                        COORDINATES IN METERS

                         I+ AND I- INDICATE THE SEGMENTS BEFORE AND AFTER I


  SEG.   COORDINATES OF SEG. CENTER     SEG.     ORIENTATION ANGLES    WIRE    CONNECTION DATA   TAG
  NO.       X         Y         Z       LENGTH     ALPHA     BETA      RADIUS    I-   I    I+    NO.
     1  -7.50000  -5.00000  -4.75000   0.50000   90.00000   0.00000   0.00100     0    1    2    101
     2  -7.50000  -5.00000  -4.25000   0.50000   90.00000   0.00000   0.00100     1    2    3    101
     3  -7.50000  -5.00000  -3.75000   0.50000   90.00000   0.00000   0.00100     2    3    4    101
     4  -7.50000  -5.00000  -3.25000   0.50000   90.00000   0.00000   0.00100     3    4    5    101
     5  -7.50000  -5.00000  -2.75000   0.50000   90.00000   0.00000   0.00100     4    5    6    101
     6  -7.50000  -5.00000  -2.25000   0.50000   90.00000   0.00000   0.00100     5    6    7    101
     7  -7.50000  -5.00000  -1.75000   0.50000   90.00000   0.00000   0.00100     6    7    8    101
     8  -7.50000  -5.00000  -1.25000   0.50000   90.00000   0.00000   0.00100     7    8    9    101
     9  -7.50000  -5.00000  -0.75000   0.50000   90.00000   0.00000   0.00100     8    9   10    101
    10  -7.50000  -5.00000  -0.25000   0.50000   90.00000   0.00000   0.00100     9   10   11    101
    11  -7.50000  -5.00000   0.25000   0.50000   90.00000   0.00000   0.00100    10   11   12    101
    12  -7.50000  -5.00000   0.75000   0.50000   90.00000   0.00000   0.00100    11   12   13    101
    13  -7.50000  -5.00000   1.25000   0.50000   90.00000   0.00000   0.00100    12   13   14    101
    14  -7.50000  -5.00000   1.75000   0.50000   90.00000   0.00000   0.00100    13   14   15    101
    15  -7.50000  -5.00000   2.25000   0.50000   90.00000   0.00000   0.00100    14   15   16    101
    16  -7.50000  -5.00000   2.75000   0.50000   90.00000   0.00000   0.00100    15   16   17    101
    17  -7.50000  -5.00000   3.25000   0.50000   90.00000   0.00000   0.00100    16   17   18    101
    18  -7.50000  -5.00000   3.75000   0.50000   90.00000   0.00000   0.00100    17   18   19    101
    19  -7.50000  -5.00000   4.25000   0.50000   90.00000   0.00000   0.00100    18   19   20    101
    20  -7.50000  -5.00000   4.75000   0.50000   90.00000   0.00000   0.00100    19   20    0    101
    21  -2.50000  -5.00000  -4.75000   0.50000   90.00000   0.00000   0.00100     0   21   22    102
    22  -2.50000  -5.00000  -4.25000   0.50000   90.00000   0.00000   0.00100    21   22   23    102
    23  -2.50000  -5.00000  -3.75000   0.50000   90.00000   0.00000   0.00100    22   23   24    102
    24  -2.50000  -5.00000  -3.25000   0.50000   90.00000   0.00000   0.00100    23   24   25    102
    25  -2.50000  -5.00000  -2.75000   0.50000   90.00000   0.00000   0.00100    24   25   26    102
    26  -2.50000  -5.00000  -2.25000   0.50000   90.00000   0.00000   0.00100    25   26   27    102
    27  -2.50000  -5.00000  -1.75000   0.50000   90.00000   0.00000   0.00100    26   27   28    102
    28  -2.50000  -5.00000  -1.25000   0.50000   90.00000   0.00000   0.00100    27   28   29    102
    29  -2.50000  -5.00000  -0.75000   0.50000   90.00000   0.00000   0.00100    28   29   30    102
    30  -2.50000  -5.00000  -0.25000   0.50000   90.00000   0.00000   0.00100    29   30   31    102
    31  -2.50000  -5.00000   0.25000   0.50000   90.00000   0.00000   0.00100    30   31   32    102
    32  -2.50000  -5.00000   0.75000   0.50000   90.00000   0.00000   0.00100    31   32   33    102
    33  -2.50000  -5.00000   1.25000   0.50000   90.00000   0.00000   0.00100    32   33   34    102
    34  -2.50000  -5.00000   1.75000   0.50000   90.00000   0.00000   0.00100    33   34   35    102
    35  -2.50000  -5.00000   2.25000   0.50000   90.00000   0.00000   0.00100    34   35   36    102
    36  -2.50000  -5.00000   2.75000   0.50000   90.00000   0.00000   0.00100    35   36   37    102
    37  -2.50000  -5.00000   3.25000   0.50000   90.00000   0.00000   0.00100    36   37   38    102
    38  -2.50000  -5.00000   3.75000   0.50000   90.00000   0.00000   0.00100    37   38   39    102
    39  -2.50000  -5.00000   4.25000   0.50000   90.00000   0.00000   0.00100    38   39   40    102
    40  -2.50000  -5.00000   4.75000   0.50000   90.00000   0.00000   0.00100    39   40    0    102
    41   2.50000  -5.00000  -4.75000   0.50000   90.00000   0.00000   0.00100     0   41   42    103
    42   2.50000  -5.00000  -4.25000   0.50000   90.00000   0.00000   0.00100    41   42   43    103
    43   2.50000  -5.00000  -3.75000   0.50000   90.00000   0.00000   0.00100    42   43   44    103
    44   2.50000  -5.00000  -3.25000   0.50000   90.00000   0.00000   0.00100    43   44   45    103
    45   2.50000  -5.00000  -2.75000   0.50000   90.00000   0.00000   0.00100    44   45   46    103
    46   2.50000  -5.00000  -2.25000   0.50000   90.00000   0.00000   0.00100    45   46   47    103
    47   2.50000  -5.00000  -1.75000   0.50000   90.00000   0.00000   0.00100    46   47   48    103
    48   2.50000  -5.00000  -1.25000   0.50000   90.00000   0.00000   0.00100    47   48   49    103
    49   2.50000  -5.00000  -0.75000   0.50000   90.00000   0.00000   0.00100    48   49   50    103
    50   2.50000  -5.00000  -0.25000   0.50000   90.00000   0.00000   0.00100    49   50   51    103
    51   2.50000  -5.00000   0.25000   0.50000   90.00000   0.00000   0.00100    50   51   52    103
    52   2.50000  -5.00000   0.75000   0.50000   90.00000   0.00000   0.00100    51   52   53    103
    53   2.50000  -5.00000   1.25000   0.50000   90.00000   0.00000   0.00100    52   53   54    103
    54   2.50000  -5.00000   1.75000   0.50000   90.00000   0.00000   0.00100    53   54   55    103
    55   2.50000  -5.00000   2.25000   0.50000   90.00000   0.00000   0.00100    54   55   56    103
    56   2.50000  -5.00000   2.75000   0.50000   90.00000   0.00000   0.00100    55   56   57    103
    57   2.50000  -5.00000   3.25000   0.50000   90.00000   0.00000   0.00100    56   57   58    103
    58   2.50000  -5.00000   3.75000   0.50000   90.00000   0.00000   0.00100    57   58   59    103
    59   2.50000  -5.00000   4.25000   0.50000   90.00000   0.00000   0.00100    58   59   60    103
    60   2.50000  -5.00000   4.75000   0.50000   90.00000   0.00000   0.00100    59   60    0    103
    61   7.50000  -5.00000  -4.75000   0.50000   90.00000   0.00000   0.00100     0   61   62    104
    62   7.50000  -5.00000  -4.25000   0.50000   90.00000   0.00000   0.00100    61   62   63    104
    63   7.50000  -5.00000  -3.75000   0.50000   90.00000   0.00000   0.00100    62   63   64    104
    64   7.50000  -5.00000  -3.25000   0.50000   90.00000   0.00000   0.00100    63   64   65    104
    65   7.50000  -5.00000  -2.75000   0.50000   90.00000   0.00000   0.00100    64   65   66    104
    66   7.50000  -5.00000  -2.25000   0.50000   90.00000   0.00000   0.00100    65   66   67    104
    67   7.50000  -5.00000  -1.75000   0.50000   90.00000   0.00000   0.00100    66   67   68    104
    68   7.50000  -5.00000  -1.25000   0.50000   90.00000   0.00000   0.00100    67   68   69    104
    69   7.50000  -5.00000  -0.75000   0.50000   90.00000   0.00000   0.00100    68   69   70    104
    70   7.50000  -5.00000  -0.25000   0.50000   90.00000   0.00000   0.00100    69   70   71    104
    71   7.50000  -5.00000   0.25000   0.50000   90.00000   0.00000   0.00100    70   71   72    104
    72   7.50000  -5.00000   0.75000   0.50000   90.00000   0.00000   0.00100    71   72   73    104
    73   7.50000  -5.00000   1.25000   0.50000   90.00000   0.00000   0.00100    72   73   74    104
    74   7.50000  -5.00000   1.75000   0.50000   90.00000   0.00000   0.00100    73   74   75    104
    75   7.50000  -5.00000   2.25000   0.50000   90.00000   0.00000   0.00100    74   75   76    104
    76   7.50000  -5.00000   2.75000   0.50000   90.00000   0.00000   0.00100    75   76   77    104
    77   7.50000  -5.00000   3.25000   0.50000   90.00000   0.00000   0.00100    76   77   78    104
    78   7.50000  -5.00000   3.75000   0.50000   90.00000   0.00000   0.00100    77   78   79    104
    79   7.50000  -5.00000   4.25000   0.50000   90.00000   0.00000   0.00100    78   79   80    104
    80   7.50000  -5.00000   4.75000   0.50000   90.00000   0.00000   0.00100    79   80    0    104
    81  -7.50000   0.00000  -4.75000   0.50000   90.00000   0.00000   0.00100     0   81   82    201
    82  -7.50000   0.00000  -4.25000   0.50000   90.00000   0.00000   0.00100    81   82   83    201
    83  -7.50000   0.00000  -3.75000   0.50000   90.00000   0.00000   0.00100    82   83   84    201
    84  -7.50000   0.00000  -3.25000   0.50000   90.00000   0.00000   0.00100    83   84   85    201
    85  -7.50000   0.00000  -2.75000   0.50000   90.00000   0.00000   0.00100    84   85   86    201
    86  -7.50000   0.00000  -2.25000   0.50000   90.00000   0.00000   0.00100    85   86   87    201
    87  -7.50000   0.00000  -1.75000   0.50000   90.00000   0.00000   0.00100    86   87   88    201
    88  -7.50000   0.00000  -1.25000   0.50000   90.00000   0.00000   0.00100    87   88   89    201
    89  -7.50000   0.00000  -0.75000   0.50000   90.00000   0.00000   0.00100    88   89   90    201
    90  -7.50000   0.00000  -0.25000   0.50000   90.00000   0.00000   0.00100    89   90   91    201
    91  -7.50000   0.00000   0.25000   0.50000   90.00000   0.00000   0.00100    90   91   92    201
    92  -7.50000   0.00000   0.75000   0.50000   90.00000   0.00000   0.00100    91   92   93    201
    93  -7.50000   0.00000   1.25000   0.50000   90.00000   0.00000   0.00100    92   93   94    201
    94  -7.50000   0.00000   1.75000   0.50000   90.00000   0.00000   0.00100    93   94   95    201
    95  -7.50000   0.00000   2.25000   0.50000   90.00000   0.00000   0.00100    94   95   96    201
    96  -7.50000   0.00000   2.75000   0.50000   90.00000   0.00000   0.00100    95   96   97    201
    97  -7.50000   0.00000   3.25000   0.50000   90.00000   0.00000   0.00100    96   97   98    201
    98  -7.50000   0.00000   3.75000   0.50000   90.00000   0.00000   0.00100    97   98   99    201
    99  -7.50000   0.00000   4.25000   0.50000   90.00000   0.00000   0.00100    98   99  100    201
   100  -7.50000   0.00000   4.75000   0.50000   90.00000   0.00000   0.00100    99  100    0    201
   101  -2.50000   0.00000  -4.75000   0.50000   90.00000   0.00000   0.00100     0  101  102    202
   102  -2.50000   0.00000  -4.25000   0.50000   90.00000   0.00000   0.00100   101  102  103    202
   103  -2.50000   0.00000  -3.75000   0.50000   90.00000   0.00000   0.00100   102  103  104    202
   104  -2.50000   0.00000  -3.25000   0.50000   90.00000   0.00000   0.00100   103  104  105    202
   105  -2.50000   0.00000  -2.75000   0.50000   90.00000   0.00000   0.00100   104  105  106    202
   106  -2.50000   0.00000  -2.25000   0.50000   90.00000   0.00000   0.00100   105  106  107    202
   107  -2.50000   0.00000  -1.75000   0.50000   90.00000   0.00000   0.00100   106  107  108    202
   108  -2.50000   0.00000  -1.25000   0.50000   90.00000   0.00000   0.00100   107  108  109    202
   109  -2.50000   0.00000  -0.75000   0.50000   90.00000   0.00000   0.00100   108  109  110    202
   110  -2.50000   0.00000  -0.25000   0.50000   90.00000   0.00000   0.00100   109  110  111    202
   111  -2.50000   0.00000   0.25000   0.50000   90.00000   0.00000   0.00100   110  111  112    202
   112  -2.50000   0.00000   0.75000   0.50000   90.00000   0.00000   0.00100   111  112  113    202
   113  -2.50000   0.00000   1.25000   0.50000   90.00000   0.00000   0.00100   112  113  114    202
   114  -2.50000   0.00000   1.75000   0.50000   90.00000   0.00000   0.00100   113  114  115    202
   115  -2.50000   0.00000   2.25000   0.50000   90.00000   0.00000   0.00100   114  115  116    202
   116  -2.50000   0.00000   2.75000   0.50000   90.00000   0.00000   0.00100   115  116  117    202
   117  -2.50000   0.00000   3.25000   0.50000   90.00000   0.00000   0.00100   116  117  118    202
   118  -2.50000   0.00000   3.75000   0.50000   90.00000   0.00000   0.00100   117  118  119    202
   119  -2.50000   0.00000   4.25000   0.50000   90.00000   0.00000   0.00100   118  119  120    202
   120  -2.50000   0.00000   4.75000   0.50000   90.00000   0.00000   0.00100   119  120    0    202
   121   2.50000   0.00000  -4.75000   0.50000   90.00000   0.00000   0.00100     0  121  122    203
   122   2.50000   0.00000  -4.25000   0.50000   90.00000   0.00000   0.00100   121  122  123    203
   123   2.50000   0.00000  -3.75000   0.50000   90.00000   0.00000   0.00100   122  123  124    203
   124   2.50000   0.00000  -3.25000   0.50000   90.00000   0.00000   0.00100   123  124  125    203
   125   2.50000   0.00000  -2.75000   0.50000   90.00000   0.00000   0.00100   124  125  126    203
   126   2.50000   0.00000  -2.25000   0.50000   90.00000   0.00000   0.00100   125  126  127    203
   127   2.50000   0.00000  -1.75000   0.50000   90.00000   0.00000   0.00100   126  127  128    203
   128   2.50000   0.00000  -1.25000   0.50000   90.00000   0.00000   0.00100   127  128  129    203
   129   2.50000   0.00000  -0.75000   0.50000   90.00000   0.00000   0.00100   128  129  130    203
   130   2.50000   0.00000  -0.25000   0.50000   90.00000   0.00000   0.00100   129  130  131    203
   131   2.50000   0.00000   0.25000   0.50000   90.00000   0.00000   0.00100   130  131  132    203
   132   2.50000   0.00000   0.75000   0.50000   90.00000   0.00000   0.00100   131  132  133    203
   133   2.50000   0.00000   1.25000   0.50000   90.00000   0.00000   0.00100   132  133  134    203
   134   2.50000   0.00000   1.75000   0.50000   90.00000   0.00000   0.00100   133  134  135    203
   135   2.50000   0.00000   2.25000   0.50000   90.00000   0.00000   0.00100   134  135  136    203
   136   2.50000   0.00000   2.75000   0.50000   90.00000   0.00000   0.00100   135  136  137    203
   137   2.50000   0.00000   3.25000   0.50000   90.00000   0.00000   0.00100   136  137  138    203
   138   2.50000   0.00000   3.75000   0.50000   90.00000   0.00000   0.00100   137  138  139    203
   139   2.50000   0.00000   4.25000   0.50000   90.00000   0.00000   0.00100   138  139  140    203
   140   2.50000   0.00000   4.75000   0.50000   90.00000   0.00000   0.00100   139  140    0    203
   141   7.50000   0.00000  -4.75000   0.50000   90.00000   0.00000   0.00100     0  141  142    204
   142   7.50000   0.00000  -4.25000   0.50000   90.00000   0.00000   0.00100   141  142  143    204
   143   7.50000   0.00000  -3.75000   0.50000   90.00000   0.00000   0.00100   142  143  144    204
   144   7.50000   0.00000  -3.25000   0.50000   90.00000   0.00000   0.00100   143  144  145    204
   145   7.50000   0.00000  -2.75000   0.50000   90.00000   0.00000   0.00100   144  145  146    204
   146   7.50000   0.00000  -2.25000   0.50000   90.00000   0.00000   0.00100   145  146  147    204
   147   7.50000   0.00000  -1.75000   0.50000   90.00000   0.00000   0.00100   146  147  148    204
   148   7.50000   0.00000  -1.25000   0.50000   90.00000   0.00000   0.00100   147  148  149    204
   149   7.50000   0.00000  -0.75000   0.50000   90.00000   0.00000   0.00100   148  149  150    204
   150   7.50000   0.00000  -0.25000   0.50000   90.00000   0.00000   0.00100   149  150  151    204
   151   7.50000   0.00000   0.25000   0.50000   90.00000   0.00000   0.00100   150  151  152    204
   152   7.50000   0.00000   0.75000   0.50000   90.00000   0.00000   0.00100   151  152  153    204
   153   7.50000   0.00000   1.25000   0.50000   90.00000   0.00000   0.00100   152  153  154    204
   154   7.50000   0.00000   1.75000   0.50000   90.00000   0.00000   0.00100   153  154  155    204
   155   7.50000   0.00000   2.25000   0.50000   90.00000   0.00000   0.00100   154  155  156    204
   156   7.50000   0.00000   2.75000   0.50000   90.00000   0.00000   0.00100   155  156  157    204
   157   7.50000   0.00000   3.25000   0.50000   90.00000   0.00000   0.00100   156  157  158    204
   158   7.50000   0.00000   3.75000   0.50000   90.00000   0.00000   0.00100   157  158  159    204
   159   7.50000   0.00000   4.25000   0.50000   90.00000   0.00000   0.00100   158  159  160    204
   160   7.50000   0.00000   4.75000   0.50000   90.00000   0.00000   0.00100   159  160    0    204
   161  -7.50000   5.00000  -4.75000   0.50000   90.00000   0.00000   0.00100     0  161  162    301
   162  -7.50000   5.00000  -4.25000   0.50000   90.00000   0.00000   0.00100   161  162  163    301
   163  -7.50000   5.00000  -3.75000   0.50000   90.00000   0.00000   0.00100   162  163  164    301
   164  -7.50000   5.00000  -3.25000   0.50000   90.00000   0.00000   0.00100   163  164  165    301
   165  -7.50000   5.00000  -2.75000   0.50000   90.00000   0.00000   0.00100   164  165  166    301
   166  -7.50000   5.00000  -2.25000   0.50000   90.00000   0.00000   0.00100   165  166  167    301
   167  -7.50000   5.00000  -1.75000   0.50000   90.00000   0.00000   0.00100   166  167  168    301
   168  -7.50000   5.00000  -1.25000   0.50000   90.00000   0.00000   0.00100   167  168  169    301
   169  -7.50000   5.00000  -0.75000   0.50000   90.00000   0.00000   0.00100   168  169  170    301
   170  -7.50000   5.00000  -0.25000   0.50000   90.00000   0.00000   0.00100   169  170  171    301
   171  -7.50000   5.00000   0.25000   0.50000   90.00000   0.00000   0.00100   170  171  172    301
   172  -7.50000   5.00000   0.75000   0.50000   90.00000   0.00000   0.00100   171  172  173    301
   173  -7.50000   5.00000   1.25000   0.50000   90.00000   0.00000   0.00100   172  173  174    301
   174  -7.50000   5.00000   1.75000   0.50000   90.00000   0.00000   0.00100   173  174  175    301
   175  -7.50000   5.00000   2.25000   0.50000   90.00000   0.00000   0.00100   174  175  176    301
   176  -7.50000   5.00000   2.75000   0.50000   90.00000   0.00000   0.00100   175  176  177    301
   177  -7.50000   5.00000   3.25000   0.50000   90.00000   0.00000   0.00100   176  177  178    301
   178  -7.50000   5.00000   3.75000   0.50000   90.00000   0.00000   0.00100   177  178  179    301
   179  -7.50000   5.00000   4.25000   0.50000   90.00000   0.00000   0.00100   178  179  180    301
   180  -7.50000   5.00000   4.75000   0.50000   90.00000   0.00000   0.00100   179  180    0    301
   181  -2.50000   5.00000  -4.75000   0.50000   90.00000   0.00000   0.00100     0  181  182    302
   182  -2.50000   5.00000  -4.25000   0.50000   90.00000   0.00000   0.00100   181  182  183    302
   183  -2.50000   5.00000  -3.75000   0.50000   90.00000   0.00000   0.00100   182  183  184    302
   184  -2.50000   5.00000  -3.25000   0.50000   90.00000   0.00000   0.00100   183  184  185    302
   185  -2.50000   5.00000  -2.75000   0.50000   90.00000   0.00000   0.00100   184  185  186    302
   186  -2.50000   5.00000  -2.25000   0.50000   90.00000   0.00000   0.00100   185  186  187    302
   187  -2.50000   5.00000  -1.75000   0.50000   90.00000   0.00000   0.00100   186  187  188    302
   188  -2.50000   5.00000  -1.25000   0.50000   90.00000   0.00000   0.00100   187  188  189    302
   189  -2.50000   5.00000  -0.75000   0.50000   90.00000   0.00000   0.00100   188  189  190    302
   190  -2.50000   5.00000  -0.25000   0.50000   90.00000   0.00000   0.00100   189  190  191    302
   191  -2.50000   5.00000   0.25000   0.50000   90.00000   0.00000   0.00100   190  191  192    302
   192  -2.50000   5.00000   0.75000   0.50000   90.00000   0.00000   0.00100   191  192  193    302
   193  -2.50000   5.00000   1.25000   0.50000   90.00000   0.00000   0.00100   192  193  194    302
   194  -2.50000   5.00000   1.75000   0.50000   90.00000   0.00000   0.00100   193  194  195    302
   195  -2.50000   5.00000   2.25000   0.50000   90.00000   0.00000   0.00100   194  195  196    302
   196  -2.50000   5.00000   2.75000   0.50000   90.00000   0.00000   0.00100   195  196  197    302
   197  -2.50000   5.00000   3.25000   0.50000   90.00000   0.00000   0.00100   196  197  198    302
   198  -2.50000   5.00000   3.75000   0.50000   90.00000   0.00000   0.00100   197  198  199    302
   199  -2.50000   5.00000   4.25000   0.50000   90.00000   0.00000   0.00100   198  199  200    302
   200  -2.50000   5.00000   4.75000   0.50000   90.00000   0.00000   0.00100   199  200    0    302
   201   2.50000   5.00000  -4.75000   0.50000   90.00000   0.00000   0.00100     0  201  202    303
   202   2.50000   5.00000  -4.25000   0.50000   90.00000   0.00000   0.00100   201  202  203    303
   203   2.50000   5.00000  -3.75000   0.50000   90.00000   0.00000   0.00100   202  203  204    303
   204   2.50000   5.00000  -3.25000   0.50000   90.00000   0.00000   0.00100   203  204  205    303
   205   2.50000   5.00000  -2.75000   0.50000   90.00000   0.00000   0.00100   204  205  206    303
   206   2.50000   5.00000  -2.25000   0.50000   90.00000   0.00000   0.00100   205  206  207    303
   207   2.50000   5.00000  -1.75000   0.50000   90.00000   0.00000   0.00100   206  207  208    303
   208   2.50000   5.00000  -1.25000   0.50000   90.00000   0.00000   0.00100   207  208  209    303
   209   2.50000   5.00000  -0.75000   0.50000   90.00000   0.00000   0.00100   208  209  210    303
   210   2.50000   5.00000  -0.25000   0.50000   90.00000   0.00000   0.00100   209  210  211    303
   211   2.50000   5.00000   0.25000   0.50000   90.00000   0.00000   0.00100   210  211  212    303
   212   2.50000   5.00000   0.75000   0.50000   90.00000   0.00000   0.00100   211  212  213    303
   213   2.50000   5.00000   1.25000   0.50000   90.00000   0.00000   0.00100   212  213  214    303
   214   2.50000   5.00000   1.75000   0.50000   90.00000   0.00000   0.00100   213  214  215    303
   215   2.50000   5.00000   2.25000   0.50000   90.00000   0.00000   0.00100   214  215  216    303
   216   2.50000   5.00000   2.75000   0.50000   90.00000   0.00000   0.00100   215  216  217    303
   217   2.50000   5.00000   3.25000   0.50000   90.00000   0.00000   0.00100   216  217  218    303
   218   2.50000   5.00000   3.75000   0.50000   90.00000   0.00000   0.00100   217  218  219    303
   219   2.50000   5.00000   4.25000   0.50000   90.00000   0.00000   0.00100   218  219  220    303
   220   2.50000   5.00000   4.75000   0.50000   90.00000   0.00000   0.00100   219  220    0    303
   221   7.50000   5.00000  -4.75000   0.50000   90.00000   0.00000   0.00100     0  221  222    304
   222   7.50000   5.00000  -4.25000   0.50000   90.00000   0.00000   0.00100   221  222  223    304
   223   7.50000   5.00000  -3.75000   0.50000   90.00000   0.00000   0.00100   222  223  224    304
   224   7.50000   5.00000  -3.25000   0.50000   90.00000   0.00000   0.00100   223  224  225    304
   225   7.50000   5.00000  -2.75000   0.50000   90.00000   0.00000   0.00100   224  225  226    304
   226   7.50000   5.00000  -2.25000   0.50000   90.00000   0.00000   0.00100   225  226  227    304
   227   7.50000   5.00000  -1.75000   0.50000   90.00000   0.00000   0.00100   226  227  228    304
   228   7.50000   5.00000  -1.25000   0.50000   90.00000   0.00000   0.00100   227  228  229    304
   229   7.50000   5.00000  -0.75000   0.50000   90.00000   0.00000   0.00100   228  229  230    304
   230   7.50000   5.00000  -0.25000   0.50000   90.00000   0.00000   0.00100   229  230  231    304
   231   7.50000   5.00000   0.25000   0.50000   90.00000   0.00000   0.00100   230  231  232    304
   232   7.50000   5.00000   0.75000   0.50000   90.00000   0.00000   0.00100   231  232  233    304
   233   7.50000   5.00000   1.25000   0.50000   90.00000   0.00000   0.00100   232  233  234    304
   234   7.50000   5.00000   1.75000   0.50000   90.00000   0.00000   0.00100   233  234  235    304
   235   7.50000   5.00000   2.25000   0.50000   90.00000   0.00000   0.00100   234  235  236    304
   236   7.50000   5.00000   2.75000   0.50000   90.00000   0.00000   0.00100   235  236  237    304
   237   7.50000   5.00000   3.25000   0.50000   90.00000   0.00000   0.00100   236  237  238    304
   238   7.50000   5.00000   3.75000   0.50000   90.00000   0.00000   0.00100   237  238  239    304
   239   7.50000   5.00000   4.25000   0.50000   90.00000   0.00000   0.00100   238  239  240    304
   240   7.50000   5.00000   4.75000   0.50000   90.00000   0.00000   0.00100   239  240    0    304






 ***** DATA CARD NO.  1   GN  -1     0     0     0  1.00000E+01  1.00000E-02  0.00000E+00  0.00000E+00  0.00000E+00  0.00000E+00
 ***** DATA CARD NO.  2   FR   0     0     0     0  1.50000E+02  0.00000E+00  0.00000E+00  0.00000E+00  0.00000E+00  0.00000E+00
 ***** DATA CARD NO.  3   EX   0   101    10     0  1.00000E+00  0.00000E+00  0.00000E+00  0.00000E+00  0.00000E+00  0.00000E+00
 ***** DATA CARD NO.  4   EX   0   102    10     0  1.00000E-09  0.00000E+00  0.00000E+00  0.00000E+00  0.00000E+00  0.00000E+00
 ***** DATA CARD NO.  5   EX   0   103    10     0  1.00000E-09  0.00000E+00  0.00000E+00  0.00000E+00  0.00000E+00  0.00000E+00
 ***** DATA CARD NO.  6   EX   0   104    10     0  1.00000E-09  0.00000E+00  0.00000E+00  0.00000E+00  0.00000E+00  0.00000E+00
 ***** DATA CARD NO.  7   EX   0   201    10     0  1.00000E-09  0.00000E+00  0.00000E+00  0.00000E+00  0.00000E+00  0.00000E+00
 ***** DATA CARD NO.  8   EX   0   202    10     0  1.00000E-09  0.00000E+00  0.00000E+00  0.00000E+00  0.00000E+00  0.00000E+00
 ***** DATA CARD NO.  9   EX   0   203    10     0  1.00000E-09  0.00000E+00  0.00000E+00  0.00000E+00  0.00000E+00  0.00000E+00
 ***** DATA CARD NO. 10   EX   0   204    10     0  1.00000E-09  0.00000E+00  0.00000E+00  0.00000E+00  0.00000E+00  0.00000E+00
 ***** DATA CARD NO. 11   EX   0   301    10     0  1.00000E-09  0.00000E+00  0.00000E+00  0.00000E+00  0.00000E+00  0.00000E+00
 ***** DATA CARD NO. 12   EX   0   302    10     0  1.00000E-09  0.00000E+00  0.00000E+00  0.00000E+00  0.00000E+00  0.00000E+00
 ***** DATA CARD NO. 13   EX   0   303    10     0  1.00000E-09  0.00000E+00  0.00000E+00  0.00000E+00  0.00000E+00  0.00000E+00
 ***** DATA CARD NO. 14   EX   0   304    10     0  1.00000E-09  0.00000E+00  0.00000E+00  0.00000E+00  0.00000E+00  0.00000E+00
 ***** DATA CARD NO. 15   RP   0    19    72  1010  0.00000E+00  0.00000E+00  5.00000E+00  5.00000E+00  0.00000E+00  0.00000E+00




                                 - - - - - - FREQUENCY - - - - - -

                                    FREQUENCY= 1.5000E+02 MHZ
                                    WAVELENGTH= 1.9987E+00 METERS




                    APPROXIMATE INTEGRATION EMPLOYED FOR SEGMENTS MORE THAN   1.000 WAVELENGTHS APART



                               - - - STRUCTURE IMPEDANCE LOADING - - -

                                   THIS STRUCTURE IS NOT LOADED



                                  - - - ANTENNA ENVIRONMENT - - -

                                            FREE SPACE



                                - - - MATRIX TIMING - - -

                        FILL=    0.031 SEC.,  FACTOR=    0.031 SEC.



                                          - - - ANTENNA INPUT PARAMETERS - - -

   TAG   SEG.    VOLTAGE (VOLTS)         CURRENT (AMPS)         IMPEDANCE (OHMS)        ADMITTANCE (MHOS)      POWER
   NO.   NO.    REAL        IMAG.       REAL        IMAG.       REAL        IMAG.       REAL        IMAG.     (WATTS)
   101    10 1.00000E+00 0.00000E+00 2.96210E-03-1.37644E-03 2.77646E+02 1.29017E+02 2.96210E-03-1.37644E-03 1.48105E-03
   102    30 1.00000E-09 0.00000E+00-2.54704E-05 2.89627E-05-1.71221E-05-1.94697E-05-2.54704E+04 2.89627E+04-1.27352E-14
   103    50 1.00000E-09 0.00000E+00 2.09002E-05 3.68987E-06 4.64001E-05-8.19178E-06 2.09002E+04 3.68987E+03 1.04501E-14
   104    70 1.00000E-09 0.00000E+00 3.12642E-05 2.86499E-05 1.73857E-05-1.59320E-05 3.12642E+04 2.86499E+04 1.56321E-14
   201    90 1.00000E-09 0.00000E+00-2.42600E-05 2.76764E-05-1.79102E-05-2.04325E-05-2.42600E+04 2.76764E+04-1.21300E-14
   202   110 1.00000E-09 0.00000E+00 8.61909E-05 4.31044E-05 9.28094E-06-4.64144E-06 8.61909E+04 4.31044E+04 4.30955E-14
   203   130 1.00000E-09 0.00000E+00-3.64731E-06-2.72562E-05-4.82320E-06 3.60435E-05-3.64731E+03-2.72562E+04-1.82366E-15
   204   150 1.00000E-09 0.00000E+00-5.22819E-07-3.63295E-05-3.96043E-07 2.75201E-05-5.22819E+02-3.63295E+04-2.61409E-16
   301   170 1.00000E-09 0.00000E+00 2.10488E-05 3.94669E-06 4.58951E-05-8.60544E-06 2.10488E+04 3.94669E+03 1.05244E-14
   302   190 1.00000E-09 0.00000E+00-5.11261E-06-3.13130E-05-5.07886E-06 3.11063E-05-5.11261E+03-3.13130E+04-2.55631E-15
   303   210 1.00000E-09 0.00000E+00-3.06640E-05 5.90690E-06-3.14447E-05-6.05731E-06-3.06640E+04 5.90690E+03-1.53320E-14
   304   230 1.00000E-09 0.00000E+00 3.45418E-06-2.23749E-05 6.73898E-06 4.36526E-05 3.45418E+03-2.23749E+04 1.72709E-15



                             - - - CURRENTS AND LOCATION - - -

                                 DISTANCES IN WAVELENGTHS


  SEG.  TAG    COORD. OF SEG. CENTER     SEG.            - - - CURRENT (AMPS) - - -
  NO.   NO.     X        Y        Z      LENGTH     REAL        IMAG.       MAG.        PHASE
     1  101  -3.7525  -2.5017  -2.3766  0.25017   2.8031E-03 -1.8230E-03  3.3438E-03  -33.038
     2  101  -3.7525  -2.5017  -2.1264  0.25017   2.6703E-03 -1.2394E-03  2.9439E-03  -24.898
     3  101  -3.7525  -2.5017  -1.8763  0.25017  -2.6819E-03  2.0235E-03  3.3596E-03  142.965
     4  101  -3.7525  -2.5017  -1.6261  0.25017  -2.6530E-03  1.1233E-03  2.8810E-03  157.052
     5  101  -3.7525  -2.5017  -1.3759  0.25017   2.6341E-03 -2.0982E-03  3.3676E-03  -38.540
     6  101  -3.7525  -2.5017  -1.1258  0.25017   2.6664E-03 -1.0564E-03  2.8680E-03  -21.613
     7  101  -3.7525  -2.5017  -0.8756  0.25017  -2.6208E-03  2.1554E-03  3.3933E-03  140.565
     8  101  -3.7525  -2.5017  -0.6254  0.25017  -2.7139E-03  9.7679E-04  2.8843E-03  160.205
     9  101  -3.7525  -2.5017  -0.3753  0.25017   2.6486E-03 -2.2539E-03  3.4778E-03  -40.397
    10  101  -3.7525  -2.5017  -0.1251  0.25017   2.9621E-03 -1.3764E-03  3.2663E-03  -24.923
    11  101  -3.7525  -2.5017   0.1251  0.25017  -2.2805E-03 -1.0915E-04  2.2831E-03 -177.260
    12  101  -3.7525  -2.5017   0.3753  0.25017  -2.7095E-03  9.0352E-04  2.8562E-03  161.558
    13  101  -3.7525  -2.5017   0.6254  0.25017   2.3368E-03  2.0808E-05  2.3369E-03    0.510
    14  101  -3.7525  -2.5017   0.8756  0.25017   2.6753E-03 -8.8473E-04  2.8178E-03  -18.299
    15  101  -3.7525  -2.5017   1.1258  0.25017  -2.3609E-03  4.6204E-05  2.3614E-03  178.879
    16  101  -3.7525  -2.5017   1.3759  0.25017  -2.6734E-03  8.5218E-04  2.8059E-03  162.320
    17  101  -3.7525  -2.5017   1.6261  0.25017   2.3805E-03 -1.0841E-04  2.3830E-03   -2.607
    18  101  -3.7525  -2.5017   1.8763  0.25017   2.6812E-03 -7.9407E-04  2.7963E-03  -16.497
    19  101  -3.7525  -2.5017   2.1264  0.25017  -2.4425E-03  1.9704E-04  2.4505E-03  175.388
    20  101  -3.7525  -2.5017   2.3766  0.25017  -2.7195E-03  6.1271E-04  2.7877E-03  167.303
    21  102  -1.2508  -2.5017  -2.3766  0.25017  -3.8726E-05  3.0161E-05  4.9086E-05  142.088
    22  102  -1.2508  -2.5017  -2.1264  0.25017  -1.1605E-06  6.2383E-06  6.3453E-06  100.538
    23  102  -1.2508  -2.5017  -1.8763  0.25017   9.0367E-05 -4.9664E-05  1.0312E-04  -28.792
    24  102  -1.2508  -2.5017  -1.6261  0.25017   4.3078E-05 -1.4900E-05  4.5582E-05  -19.080
    25  102  -1.2508  -2.5017  -1.3759  0.25017  -8.5731E-05  3.6806E-05  9.3298E-05  156.766
    26  102  -1.2508  -2.5017  -1.1258  0.25017  -8.4139E-05 -1.8568E-05  8.6163E-05 -167.555
    27  102  -1.2508  -2.5017  -0.8756  0.25017   2.7547E-05 -8.5202E-05  8.9545E-05  -72.083
    28  102  -1.2508  -2.5017  -0.6254  0.25017   4.7886E-05 -1.5644E-05  5.0377E-05  -18.092
    29  102  -1.2508  -2.5017  -0.3753  0.25017  -2.7232E-05  8.4247E-05  8.8539E-05  107.913
    30  102  -1.2508  -2.5017  -0.1251  0.25017  -2.5470E-05  2.8963E-05  3.8569E-05  131.329
    31  102  -1.2508  -2.5017   0.1251  0.25017   4.7992E-05 -9.6344E-05  1.0764E-04  -63.521
    32  102  -1.2508  -2.5017   0.3753  0.25017   3.0632E-05 -8.1548E-05  8.7111E-05  -69.412
    33  102  -1.2508  -2.5017   0.6254  0.25017  -5.4417E-05  3.1204E-05  6.2729E-05  150.169
    34  102  -1.2508  -2.5017   0.8756  0.25017  -3.2069E-05  4.4307E-05  5.4695E-05  125.896
    35  102  -1.2508  -2.5017   1.1258  0.25017   6.6776E-05 -2.8089E-05  7.2443E-05  -22.814
    36  102  -1.2508  -2.5017   1.3759  0.25017   4.2703E-05 -1.8825E-05  4.6669E-05  -23.789
    37  102  -1.2508  -2.5017   1.6261  0.25017  -8.2268E-05  5.7792E-05  1.0054E-04  144.913
    38  102  -1.2508  -2.5017   1.8763  0.25017  -8.2624E-05  5.0556E-05  9.6864E-05  148.539
    39  102  -1.2508  -2.5017   2.1264  0.25017   4.7580E-05 -2.5961E-05  5.4202E-05  -28.618
    40  102  -1.2508  -2.5017   2.3766  0.25017   6.5888E-05 -3.0838E-05  7.2747E-05  -25.081
    41  103   1.2508  -2.5017  -2.3766  0.25017   3.0415E-05  2.4026E-06  3.0510E-05    4.517
    42  103   1.2508  -2.5017  -2.1264  0.25017   2.3910E-05  8.3415E-06  2.5323E-05   19.233
    43  103   1.2508  -2.5017  -1.8763  0.25017  -3.7246E-05  1.4576E-05  3.9997E-05  158.627
    44  103   1.2508  -2.5017  -1.6261  0.25017  -3.9317E-05  1.1831E-05  4.1058E-05  163.253
    45  103   1.2508  -2.5017  -1.3759  0.25017   1.6964E-05  2.4182E-06  1.7136E-05    8.113
    46  103   1.2508  -2.5017  -1.1258  0.25017   2.6115E-05  2.4897E-06  2.6233E-05    5.446
    47  103   1.2508  -2.5017  -0.8756  0.25017  -1.6684E-05  1.4317E-05  2.1985E-05  139.365
    48  103   1.2508  -2.5017  -0.6254  0.25017  -1.6148E-05  2.0545E-05  2.6132E-05  128.166
    49  103   1.2508  -2.5017  -0.3753  0.25017   2.7566E-05  1.3204E-05  3.0565E-05   25.593
    50  103   1.2508  -2.5017  -0.1251  0.25017   2.0900E-05  3.6899E-06  2.1223E-05   10.012
    51  103   1.2508  -2.5017   0.1251  0.25017  -3.1974E-05 -7.7269E-07  3.1984E-05 -178.616
    52  103   1.2508  -2.5017   0.3753  0.25017  -3.4342E-05 -4.8973E-06  3.4690E-05 -171.884
    53  103   1.2508  -2.5017   0.6254  0.25017   1.2367E-05 -6.6778E-06  1.4055E-05  -28.367
    54  103   1.2508  -2.5017   0.8756  0.25017   1.5146E-05  2.0818E-06  1.5288E-05    7.826
    55  103   1.2508  -2.5017   1.1258  0.25017  -2.1052E-05  1.3917E-05  2.5236E-05  146.531
    56  103   1.2508  -2.5017   1.3759  0.25017  -4.2019E-06  1.1066E-05  1.1837E-05  110.793
    57  103   1.2508  -2.5017   1.6261  0.25017   5.1879E-05 -5.0777E-06  5.2127E-05   -5.590
    58  103   1.2508  -2.5017   1.8763  0.25017   4.2587E-05 -1.4908E-05  4.5121E-05  -19.293
    59  103   1.2508  -2.5017   2.1264  0.25017  -2.3042E-05 -1.0946E-05  2.5510E-05 -154.590
    60  103   1.2508  -2.5017   2.3766  0.25017  -2.9509E-05 -3.1909E-06  2.9681E-05 -173.828
    61  104   3.7525  -2.5017  -2.3766  0.25017   3.7758E-05  3.5634E-05  5.1918E-05   43.342
    62  104   3.7525  -2.5017  -2.1264  0.25017   3.9409E-05  3.4758E-05  5.2547E-05   41.412
    63  104   3.7525  -2.5017  -1.8763  0.25017  -2.9560E-05 -3.2938E-05  4.4257E-05 -131.906
    64  104   3.7525  -2.5017  -1.6261  0.25017  -3.3035E-05 -3.8216E-05  5.0516E-05 -130.841
    65  104   3.7525  -2.5017  -1.3759  0.25017   3.0187E-05  2.0034E-05  3.6230E-05   33.570
    66  104   3.7525  -2.5017  -1.1258  0.25017   3.0618E-05  1.6844E-05  3.4945E-05   28.817
    67  104   3.7525  -2.5017  -0.8756  0.25017  -2.9858E-05 -4.8289E-05  5.6774E-05 -121.729
    68  104   3.7525  -2.5017  -0.6254  0.25017  -2.4886E-05 -4.8341E-05  5.4371E-05 -117.239
    69  104   3.7525  -2.5017  -0.3753  0.25017   3.8208E-05  1.9979E-05  4.3116E-05   27.605
    70  104   3.7525  -2.5017  -0.1251  0.25017   3.1264E-05  2.8650E-05  4.2406E-05   42.502
    71  104   3.7525  -2.5017   0.1251  0.25017  -3.6179E-05 -2.9598E-05  4.6744E-05 -140.714
    72  104   3.7525  -2.5017   0.3753  0.25017  -3.3607E-05 -2.8821E-05  4.4273E-05 -139.384
    73  104   3.7525  -2.5017   0.6254  0.25017   3.0525E-05  3.8134E-05  4.8846E-05   51.324
    74  104   3.7525  -2.5017   0.8756  0.25017   2.7143E-05  4.3162E-05  5.0987E-05   57.836
    75  104   3.7525  -2.5017   1.1258  0.25017  -3.4226E-05 -2.4381E-05  4.2022E-05 -144.536
    76  104   3.7525  -2.5017   1.3759  0.25017  -2.7223E-05 -3.6083E-05  4.5200E-05 -127.033
    77  104   3.7525  -2.5017   1.6261  0.25017   3.2684E-05  2.3049E-05  3.9994E-05   35.192
    78  104   3.7525  -2.5017   1.8763  0.25017   1.6549E-05  2.7849E-05  3.2395E-05   59.280
    79  104   3.7525  -2.5017   2.1264  0.25017  -5.4765E-05 -3.5443E-05  6.5234E-05 -147.090
    80  104   3.7525  -2.5017   2.3766  0.25017  -4.2360E-05 -3.7579E-05  5.6627E-05 -138.423
    81  201  -3.7525   0.0000  -2.3766  0.25017  -3.7175E-05  2.8946E-05  4.7115E-05  142.094
    82  201  -3.7525   0.0000  -2.1264  0.25017   5.3527E-07  4.9260E-06  4.9550E-06   83.798
    83  201  -3.7525   0.0000  -1.8763  0.25017   8.9576E-05 -4.8650E-05  1.0193E-04  -28.507
    84  201  -3.7525   0.0000  -1.6261  0.25017   4.2045E-05 -1.3474E-05  4.4151E-05  -17.769
    85  201  -3.7525   0.0000  -1.3759  0.25017  -8.4837E-05  3.6065E-05  9.2185E-05  156.969
    86  201  -3.7525   0.0000  -1.1258  0.25017  -8.3494E-05 -2.0120E-05  8.5885E-05 -166.451
    87  201  -3.7525   0.0000  -0.8756  0.25017   2.6144E-05 -8.5415E-05  8.9327E-05  -72.981
    88  201  -3.7525   0.0000  -0.6254  0.25017   4.6971E-05 -1.5773E-05  4.9549E-05  -18.562
    89  201  -3.7525   0.0000  -0.3753  0.25017  -2.5732E-05  8.2605E-05  8.6521E-05  107.302
    90  201  -3.7525   0.0000  -0.1251  0.25017  -2.4260E-05  2.7676E-05  3.6804E-05  131.236
    91  201  -3.7525   0.0000   0.1251  0.25017   4.6666E-05 -9.5310E-05  1.0612E-04  -63.913
    92  201  -3.7525   0.0000   0.3753  0.25017   2.9290E-05 -7.9970E-05  8.5165E-05  -69.884
    93  201  -3.7525   0.0000   0.6254  0.25017  -5.3400E-05  3.1229E-05  6.1862E-05  149.680
    94  201  -3.7525   0.0000   0.8756  0.25017  -3.0921E-05  4.4179E-05  5.3925E-05  124.988
    95  201  -3.7525   0.0000   1.1258  0.25017   6.5860E-05 -2.6849E-05  7.1122E-05  -22.179
    96  201  -3.7525   0.0000   1.3759  0.25017   4.1862E-05 -1.8112E-05  4.5612E-05  -23.397
    97  201  -3.7525   0.0000   1.6261  0.25017  -8.1141E-05  5.6375E-05  9.8803E-05  145.209
    98  201  -3.7525   0.0000   1.8763  0.25017  -8.2000E-05  4.9285E-05  9.5671E-05  148.993
    99  201  -3.7525   0.0000   2.1264  0.25017   4.5715E-05 -2.4987E-05  5.2098E-05  -28.660
   100  201  -3.7525   0.0000   2.3766  0.25017   6.4369E-05 -2.9731E-05  7.0904E-05  -24.792
   101  202  -1.2508   0.0000  -2.3766  0.25017   1.0315E-04  6.3651E-05  1.2121E-04   31.677
   102  202  -1.2508   0.0000  -2.1264  0.25017   1.1569E-04  6.4553E-05  1.3248E-04   29.161
   103  202  -1.2508   0.0000  -1.8763  0.25017  -7.9216E-05 -5.0380E-05  9.3879E-05 -147.544
   104  202  -1.2508   0.0000  -1.6261  0.25017  -1.1044E-04 -7.0278E-05  1.3091E-04 -147.530
   105  202  -1.2508   0.0000  -1.3759  0.25017   6.5872E-05  1.4560E-05  6.7462E-05   12.464
   106  202  -1.2508   0.0000  -1.1258  0.25017   9.3141E-05  1.9993E-05  9.5263E-05   12.115
   107  202  -1.2508   0.0000  -0.8756  0.25017  -8.1813E-05 -5.7304E-05  9.9885E-05 -144.991
   108  202  -1.2508   0.0000  -0.6254  0.25017  -1.1590E-04 -4.3229E-05  1.2370E-04 -159.545
   109  202  -1.2508   0.0000  -0.3753  0.25017   4.8341E-05  5.1962E-05  7.0971E-05   47.068
   110  202  -1.2508   0.0000  -0.1251  0.25017   8.6191E-05  4.3104E-05  9.6368E-05   26.570
   111  202  -1.2508   0.0000   0.1251  0.25017  -5.2113E-05 -6.3570E-05  8.2200E-05 -129.344
   112  202  -1.2508   0.0000   0.3753  0.25017  -5.8976E-05 -7.4350E-05  9.4901E-05 -128.422
   113  202  -1.2508   0.0000   0.6254  0.25017   8.8972E-05  2.1569E-05  9.1549E-05   13.627
   114  202  -1.2508   0.0000   0.8756  0.25017   7.6637E-05  4.1587E-05  8.7193E-05   28.486
   115  202  -1.2508   0.0000   1.1258  0.25017  -1.0013E-04 -2.8804E-05  1.0419E-04 -163.952
   116  202  -1.2508   0.0000   1.3759  0.25017  -1.0244E-04 -2.0735E-05  1.0452E-04 -168.558
   117  202  -1.2508   0.0000   1.6261  0.25017   7.6601E-05  6.6193E-05  1.0124E-04   40.831
   118  202  -1.2508   0.0000   1.8763  0.25017   8.2152E-05  5.5967E-05  9.9404E-05   34.265
   119  202  -1.2508   0.0000   2.1264  0.25017  -1.0108E-04 -4.6820E-05  1.1140E-04 -155.147
   120  202  -1.2508   0.0000   2.3766  0.25017  -1.0363E-04 -5.0901E-05  1.1546E-04 -153.841
   121  203   1.2508   0.0000  -2.3766  0.25017  -3.2027E-06 -3.2017E-05  3.2176E-05  -95.712
   122  203   1.2508   0.0000  -2.1264  0.25017   2.6859E-06 -3.7185E-05  3.7282E-05  -85.869
   123  203   1.2508   0.0000  -1.8763  0.25017   1.1702E-05  1.2723E-05  1.7286E-05   47.393
   124  203   1.2508   0.0000  -1.6261  0.25017   7.6442E-06  1.6483E-05  1.8169E-05   65.119
   125  203   1.2508   0.0000  -1.3759  0.25017  -5.4791E-06 -2.7895E-05  2.8428E-05 -101.112
   126  203   1.2508   0.0000  -1.1258  0.25017  -1.4662E-05 -2.9276E-05  3.2742E-05 -116.603
   127  203   1.2508   0.0000  -0.8756  0.25017  -1.8840E-05  1.0692E-05  2.1662E-05  150.425
   128  203   1.2508   0.0000  -0.6254  0.25017  -2.1648E-05  5.1371E-06  2.2249E-05  166.650
   129  203   1.2508   0.0000  -0.3753  0.25017  -1.7629E-05 -3.7588E-05  4.1516E-05 -115.127
   130  203   1.2508   0.0000  -0.1251  0.25017  -3.6473E-06 -2.7256E-05  2.7499E-05  -97.622
   131  203   1.2508   0.0000   0.1251  0.25017   9.5726E-06  2.5843E-05  2.7559E-05   69.675
   132  203   1.2508   0.0000   0.3753  0.25017   1.3329E-05  2.6095E-05  2.9302E-05   62.943
   133  203   1.2508   0.0000   0.6254  0.25017   1.3395E-05 -2.1375E-05  2.5225E-05  -57.926
   134  203   1.2508   0.0000   0.8756  0.25017   1.2954E-05 -2.2732E-05  2.6164E-05  -60.323
   135  203   1.2508   0.0000   1.1258  0.25017   2.4084E-06  1.9645E-05  1.9792E-05   83.011
   136  203   1.2508   0.0000   1.3759  0.25017  -1.8452E-05  1.8195E-05  2.5914E-05  135.403
   137  203   1.2508   0.0000   1.6261  0.25017  -2.9446E-05 -1.8313E-05  3.4676E-05 -148.122
   138  203   1.2508   0.0000   1.8763  0.25017  -1.8759E-05 -1.5138E-06  1.8820E-05 -175.386
   139  203   1.2508   0.0000   2.1264  0.25017  -2.3275E-06  5.0994E-05  5.1047E-05   92.613
   140  203   1.2508   0.0000   2.3766  0.25017   1.8150E-06  3.6476E-05  3.6522E-05   87.151
   141  204   3.7525   0.0000  -2.3766  0.25017   3.7676E-07 -4.7584E-05  4.7586E-05  -89.546
   142  204   3.7525   0.0000  -2.1264  0.25017   6.1840E-08 -4.6353E-05  4.6353E-05  -89.924
   143  204   3.7525   0.0000  -1.8763  0.25017  -2.4740E-06  4.4284E-05  4.4353E-05   93.198
   144  204   3.7525   0.0000  -1.6261  0.25017  -6.7006E-06  4.9354E-05  4.9806E-05   97.732
   145  204   3.7525   0.0000  -1.3759  0.25017  -9.1672E-06 -3.1405E-05  3.2715E-05 -106.273
   146  204   3.7525   0.0000  -1.1258  0.25017  -1.0668E-05 -3.0070E-05  3.1906E-05 -109.534
   147  204   3.7525   0.0000  -0.8756  0.25017  -1.5029E-05  5.2292E-05  5.4408E-05  106.035
   148  204   3.7525   0.0000  -0.6254  0.25017  -1.8008E-05  4.9742E-05  5.2902E-05  109.902
   149  204   3.7525   0.0000  -0.3753  0.25017  -1.1560E-05 -3.5115E-05  3.6969E-05 -108.221
   150  204   3.7525   0.0000  -0.1251  0.25017  -5.2282E-07 -3.6330E-05  3.6333E-05  -90.824
   151  204   3.7525   0.0000   0.1251  0.25017   2.8624E-06  4.3253E-05  4.3348E-05   86.214
   152  204   3.7525   0.0000   0.3753  0.25017   1.1584E-06  3.8360E-05  3.8377E-05   88.270
   153  204   3.7525   0.0000   0.6254  0.25017   6.4880E-06 -4.6526E-05  4.6976E-05  -82.061
   154  204   3.7525   0.0000   0.8756  0.25017   1.4157E-05 -4.4562E-05  4.6757E-05  -72.376
   155  204   3.7525   0.0000   1.1258  0.25017   8.6198E-06  4.0162E-05  4.1077E-05   77.887
   156  204   3.7525   0.0000   1.3759  0.25017  -4.4897E-06  4.0564E-05  4.0811E-05   96.316
   157  204   3.7525   0.0000   1.6261  0.25017  -3.8616E-06 -3.8552E-05  3.8745E-05  -95.720
   158  204   3.7525   0.0000   1.8763  0.25017   8.7381E-06 -2.9353E-05  3.0626E-05  -73.422
   159  204   3.7525   0.0000   2.1264  0.25017   1.0532E-05  6.0050E-05  6.0967E-05   80.052
   160  204   3.7525   0.0000   2.3766  0.25017   1.0455E-06  5.2581E-05  5.2591E-05   88.861
   161  301  -3.7525   2.5017  -2.3766  0.25017   2.9273E-05  3.6046E-06  2.9494E-05    7.020
   162  301  -3.7525   2.5017  -2.1264  0.25017   2.2517E-05  9.1095E-06  2.4290E-05   22.027
   163  301  -3.7525   2.5017  -1.8763  0.25017  -3.6573E-05  1.3146E-05  3.8864E-05  160.229
   164  301  -3.7525   2.5017  -1.6261  0.25017  -3.8059E-05  1.1102E-05  3.9645E-05  163.737
   165  301  -3.7525   2.5017  -1.3759  0.25017   1.6640E-05  4.5520E-06  1.7251E-05   15.299
   166  301  -3.7525   2.5017  -1.1258  0.25017   2.5264E-05  4.8734E-06  2.5729E-05   10.918
   167  301  -3.7525   2.5017  -0.8756  0.25017  -1.6252E-05  1.4145E-05  2.1546E-05  138.964
   168  301  -3.7525   2.5017  -0.6254  0.25017  -1.5188E-05  1.9233E-05  2.4507E-05  128.298
   169  301  -3.7525   2.5017  -0.3753  0.25017   2.7784E-05  1.3023E-05  3.0685E-05   25.113
   170  301  -3.7525   2.5017  -0.1251  0.25017   2.1049E-05  3.9467E-06  2.1416E-05   10.620
   171  301  -3.7525   2.5017   0.1251  0.25017  -3.1362E-05 -1.0926E-06  3.1381E-05 -178.005
   172  301  -3.7525   2.5017   0.3753  0.25017  -3.4459E-05 -4.5464E-06  3.4758E-05 -172.484
   173  301  -3.7525   2.5017   0.6254  0.25017   1.1302E-05 -5.3105E-06  1.2487E-05  -25.168
   174  301  -3.7525   2.5017   0.8756  0.25017   1.5024E-05  1.9897E-06  1.5155E-05    7.544
   175  301  -3.7525   2.5017   1.1258  0.25017  -1.9781E-05  1.1422E-05  2.2842E-05  149.996
   176  301  -3.7525   2.5017   1.3759  0.25017  -3.7692E-06  9.2335E-06  9.9731E-06  112.206
   177  301  -3.7525   2.5017   1.6261  0.25017   5.0826E-05 -4.1670E-06  5.0997E-05   -4.687
   178  301  -3.7525   2.5017   1.8763  0.25017   4.2607E-05 -1.3755E-05  4.4773E-05  -17.892
   179  301  -3.7525   2.5017   2.1264  0.25017  -2.0974E-05 -1.1958E-05  2.4144E-05 -150.312
   180  301  -3.7525   2.5017   2.3766  0.25017  -2.8214E-05 -4.3283E-06  2.8544E-05 -171.278
   181  302  -1.2508   2.5017  -2.3766  0.25017  -4.5352E-06 -3.6364E-05  3.6646E-05  -97.109
   182  302  -1.2508   2.5017  -2.1264  0.25017   1.0449E-06 -4.1455E-05  4.1468E-05  -88.556
   183  302  -1.2508   2.5017  -1.8763  0.25017   1.2609E-05  1.6402E-05  2.0689E-05   52.449
   184  302  -1.2508   2.5017  -1.6261  0.25017   9.0669E-06  2.0346E-05  2.2275E-05   65.980
   185  302  -1.2508   2.5017  -1.3759  0.25017  -6.1155E-06 -3.1638E-05  3.2223E-05 -100.940
   186  302  -1.2508   2.5017  -1.1258  0.25017  -1.5157E-05 -3.3275E-05  3.6565E-05 -114.490
   187  302  -1.2508   2.5017  -0.8756  0.25017  -1.6943E-05  1.4139E-05  2.2067E-05  140.154
   188  302  -1.2508   2.5017  -0.6254  0.25017  -2.0178E-05  8.8550E-06  2.2036E-05  156.306
   189  302  -1.2508   2.5017  -0.3753  0.25017  -1.9147E-05 -4.1291E-05  4.5514E-05 -114.877
   190  302  -1.2508   2.5017  -0.1251  0.25017  -5.1126E-06 -3.1313E-05  3.1728E-05  -99.273
   191  302  -1.2508   2.5017   0.1251  0.25017   1.1116E-05  2.9144E-05  3.1192E-05   69.122
   192  302  -1.2508   2.5017   0.3753  0.25017   1.4977E-05  2.9766E-05  3.3322E-05   63.291
   193  302  -1.2508   2.5017   0.6254  0.25017   1.1952E-05 -2.5065E-05  2.7768E-05  -64.507
   194  302  -1.2508   2.5017   0.8756  0.25017   1.0935E-05 -2.6832E-05  2.8975E-05  -67.827
   195  302  -1.2508   2.5017   1.1258  0.25017   2.8817E-06  2.2897E-05  2.3077E-05   82.827
   196  302  -1.2508   2.5017   1.3759  0.25017  -1.7615E-05  2.1764E-05  2.7999E-05  128.985
   197  302  -1.2508   2.5017   1.6261  0.25017  -3.0663E-05 -2.2371E-05  3.7956E-05 -143.886
   198  302  -1.2508   2.5017   1.8763  0.25017  -1.9580E-05 -6.0540E-06  2.0495E-05 -162.819
   199  302  -1.2508   2.5017   2.1264  0.25017  -5.5846E-07  5.4377E-05  5.4380E-05   90.588
   200  302  -1.2508   2.5017   2.3766  0.25017   3.2849E-06  4.0626E-05  4.0758E-05   85.377
   201  303   1.2508   2.5017  -2.3766  0.25017  -3.7582E-05  4.5223E-06  3.7853E-05  173.138
   202  303   1.2508   2.5017  -2.1264  0.25017  -3.9224E-05  6.6383E-06  3.9782E-05  170.394
   203  303   1.2508   2.5017  -1.8763  0.25017   2.8177E-05  9.8320E-07  2.8194E-05    1.998
   204  303   1.2508   2.5017  -1.6261  0.25017   3.1840E-05  1.2521E-06  3.1865E-05    2.252
   205  303   1.2508   2.5017  -1.3759  0.25017  -2.9138E-05  9.2711E-06  3.0577E-05  162.350
   206  303   1.2508   2.5017  -1.1258  0.25017  -2.8142E-05  1.3387E-05  3.1163E-05  154.559
   207  303   1.2508   2.5017  -0.8756  0.25017   3.4080E-05  1.1937E-05  3.6110E-05   19.304
   208  303   1.2508   2.5017  -0.6254  0.25017   3.2425E-05  1.2821E-05  3.4867E-05   21.574
   209  303   1.2508   2.5017  -0.3753  0.25017  -3.0939E-05  1.3460E-05  3.3740E-05  156.488
   210  303   1.2508   2.5017  -0.1251  0.25017  -3.0664E-05  5.9069E-06  3.1228E-05  169.096
   211  303   1.2508   2.5017   0.1251  0.25017   3.1036E-05 -3.9302E-06  3.1284E-05   -7.217
   212  303   1.2508   2.5017   0.3753  0.25017   2.9122E-05 -5.5232E-06  2.9641E-05  -10.739
   213  303   1.2508   2.5017   0.6254  0.25017  -3.3602E-05 -3.5047E-06  3.3784E-05 -174.046
   214  303   1.2508   2.5017   0.8756  0.25017  -3.1592E-05 -5.9486E-06  3.2148E-05 -169.337
   215  303   1.2508   2.5017   1.1258  0.25017   3.2506E-05 -5.5811E-06  3.2982E-05   -9.742
   216  303   1.2508   2.5017   1.3759  0.25017   3.3426E-05  4.1491E-06  3.3682E-05    7.076
   217  303   1.2508   2.5017   1.6261  0.25017  -2.5149E-05  1.0039E-05  2.7079E-05  158.240
   218  303   1.2508   2.5017   1.8763  0.25017  -1.7583E-05  9.5420E-07  1.7609E-05  176.894
   219  303   1.2508   2.5017   2.1264  0.25017   4.8910E-05 -9.0124E-06  4.9733E-05  -10.440
   220  303   1.2508   2.5017   2.3766  0.25017   4.0885E-05 -4.6828E-06  4.1152E-05   -6.534
   221  304   3.7525   2.5017  -2.3766  0.25017   1.5669E-06 -3.0847E-05  3.0886E-05  -87.092
   222  304   3.7525   2.5017  -2.1264  0.25017   5.5809E-06 -2.7535E-05  2.8095E-05  -78.542
   223  304   3.7525   2.5017  -1.8763  0.25017   4.4890E-06  3.6285E-05  3.6561E-05   82.947
   224  304   3.7525   2.5017  -1.6261  0.25017  -2.4647E-06  4.2037E-05  4.2110E-05   93.355
   225  304   3.7525   2.5017  -1.3759  0.25017  -6.0056E-06 -1.1447E-05  1.2927E-05 -117.682
   226  304   3.7525   2.5017  -1.1258  0.25017  -4.6657E-06 -1.0830E-05  1.1792E-05 -113.307
   227  304   3.7525   2.5017  -0.8756  0.25017  -7.1684E-06  4.3634E-05  4.4219E-05   99.330
   228  304   3.7525   2.5017  -0.6254  0.25017  -1.2021E-05  3.9792E-05  4.1568E-05  106.809
   229  304   3.7525   2.5017  -0.3753  0.25017  -7.6133E-06 -2.0122E-05  2.1514E-05 -110.725
   230  304   3.7525   2.5017  -0.1251  0.25017   3.4542E-06 -2.2375E-05  2.2640E-05  -81.224
   231  304   3.7525   2.5017   0.1251  0.25017   6.0317E-06  3.1484E-05  3.2057E-05   79.155
   232  304   3.7525   2.5017   0.3753  0.25017   1.3015E-06  2.7688E-05  2.7719E-05   87.309
   233  304   3.7525   2.5017   0.6254  0.25017   5.0282E-06 -3.2155E-05  3.2545E-05  -81.112
   234  304   3.7525   2.5017   0.8756  0.25017   1.4786E-05 -3.3628E-05  3.6735E-05  -66.265
   235  304   3.7525   2.5017   1.1258  0.25017   1.1805E-05  2.2550E-05  2.5453E-05   62.368
   236  304   3.7525   2.5017   1.3759  0.25017  -1.6317E-06  2.2910E-05  2.2968E-05   94.074
   237  304   3.7525   2.5017   1.6261  0.25017  -2.8870E-06 -3.0513E-05  3.0650E-05  -95.405
   238  304   3.7525   2.5017   1.8763  0.25017   8.9246E-06 -2.3575E-05  2.5208E-05  -69.265
   239  304   3.7525   2.5017   2.1264  0.25017   1.0808E-05  3.8978E-05  4.0449E-05   74.502
   240  304   3.7525   2.5017   2.3766  0.25017   1.1033E-06  3.5655E-05  3.5672E-05   88.228



                                        - - - POWER BUDGET - - -

                                           INPUT POWER   = 1.4811E-03 WATTS
                                           RADIATED POWER= 1.4811E-03 WATTS
                                           STRUCTURE LOSS= 0.0000E+00 WATTS
                                           NETWORK LOSS  = 0.0000E+00 WATTS
                                           EFFICIENCY    = 100.00 PERCENT



                                                - - - RADIATION PATTERNS - - -

  - - ANGLES - -       - DIRECTIVE GAINS -       - - - POLARIZATION - - -    - - - E(THETA) - - -    - - - E(PHI) - - -
  THETA     PHI        VERT.   HOR.    TOTAL      AXIAL     TILT   SENSE     MAGNITUDE    PHASE      MAGNITUDE    PHASE 
 DEGREES  DEGREES       DB      DB      DB        RATIO     DEG.              VOLTS/M    DEGREES      VOLTS/M    DEGREES
    0.00     0.00    -999.99 -999.99 -999.99    0.00000     0.00            0.00000E+00     0.00    0.00000E+00     0.00
    5.00     0.00      -5.79 -999.99   -5.79    0.00000     0.00  LINEAR    1.53052E-01  -135.89    0.00000E+00     0.00
   10.00     0.00       0.56 -999.99    0.56    0.00000     0.00  LINEAR    3.17813E-01   105.55    0.00000E+00     0.00
   15.00     0.00       4.63 -999.99    4.63    0.00000     0.00  LINEAR    5.07711E-01   -10.44    0.00000E+00     0.00
   20.00     0.00       6.42 -999.99    6.42    0.00000     0.00  LINEAR    6.24006E-01  -120.10    0.00000E+00     0.00
   25.00     0.00       7.11 -999.99    7.11    0.00000     0.00  LINEAR    6.75561E-01   131.64    0.00000E+00     0.00
   30.00     0.00       5.46 -999.99    5.46    0.00000     0.00  LINEAR    5.58791E-01    25.02    0.00000E+00     0.00
   35.00     0.00       0.65 -999.99    0.65    0.00000     0.00  LINEAR    3.21215E-01   -75.78    0.00000E+00     0.00
   40.00     0.00     -40.07 -999.99  -40.07    0.00000     0.00  LINEAR    2.95730E-03  -106.00    0.00000E+00     0.00
   45.00     0.00      -2.95 -999.99   -2.95    0.00000     0.00  LINEAR    2.12101E-01   -71.57    0.00000E+00     0.00
   50.00     0.00      -7.15 -999.99   -7.15    0.00000     0.00  LINEAR    1.30795E-01  -155.70    0.00000E+00     0.00
   55.00     0.00      -5.38 -999.99   -5.38    0.00000     0.00  LINEAR    1.60335E-01   -36.33    0.00000E+00     0.00
   60.00     0.00       1.06 -999.99    1.06    0.00000     0.00  LINEAR    3.36734E-01  -101.94    0.00000E+00     0.00
   65.00     0.00      -3.25 -999.99   -3.25    0.00000     0.00  LINEAR    2.04974E-01  -156.71    0.00000E+00     0.00
   70.00     0.00     -10.59 -999.99  -10.59    0.00000     0.00  LINEAR    8.80522E-02   -37.47    0.00000E+00     0.00
   75.00     0.00      -6.43 -999.99   -6.43    0.00000     0.00  LINEAR    1.42082E-01   -68.59    0.00000E+00     0.00
   80.00     0.00      -7.99 -999.99   -7.99    0.00000     0.00  LINEAR    1.18781E-01   104.56    0.00000E+00     0.00
   85.00     0.00      -0.12 -999.99   -0.12    0.00000     0.00  LINEAR    2.94034E-01    86.34    0.00000E+00     0.00
   90.00     0.00      -7.54 -999.99   -7.54    0.00000     0.00  LINEAR    1.25126E-01   105.81    0.00000E+00     0.00
    0.00     5.00    -999.99 -999.99 -999.99    0.00000     0.00            0.00000E+00     0.00    0.00000E+00     0.00
    5.00     5.00      -5.85 -999.99   -5.85    0.00000     0.00  LINEAR    1.51965E-01  -142.37    0.00000E+00     0.00
   10.00     5.00       0.48 -999.99    0.48    0.00000     0.00  LINEAR    3.14825E-01    92.33    0.00000E+00     0.00
   15.00     5.00       4.76 -999.99    4.76    0.00000     0.00  LINEAR    5.15727E-01   -29.07    0.00000E+00     0.00
   20.00     5.00       6.26 -999.99    6.26    0.00000     0.00  LINEAR    6.12496E-01  -145.66    0.00000E+00     0.00
   25.00     5.00       6.99 -999.99    6.99    0.00000     0.00  LINEAR    6.66063E-01   101.60    0.00000E+00     0.00
   30.00     5.00       5.29 -999.99    5.29    0.00000     0.00  LINEAR    5.47859E-01   -12.91    0.00000E+00     0.00
   35.00     5.00       0.54 -999.99    0.54    0.00000     0.00  LINEAR    3.17198E-01  -118.40    0.00000E+00     0.00
   40.00     5.00     -23.82 -999.99  -23.82    0.00000     0.00  LINEAR    1.91872E-02   -47.97    0.00000E+00     0.00
   45.00     5.00      -3.08 -999.99   -3.08    0.00000     0.00  LINEAR    2.08922E-01  -120.01    0.00000E+00     0.00
   50.00     5.00      -6.88 -999.99   -6.88    0.00000     0.00  LINEAR    1.34960E-01   150.30    0.00000E+00     0.00
   55.00     5.00      -5.67 -999.99   -5.67    0.00000     0.00  LINEAR    1.55162E-01   -94.41    0.00000E+00     0.00
   60.00     5.00       0.32 -999.99    0.32    0.00000     0.00  LINEAR    3.09015E-01  -166.03    0.00000E+00     0.00
   65.00     5.00      -3.83 -999.99   -3.83    0.00000     0.00  LINEAR    1.91650E-01   139.87    0.00000E+00     0.00
   70.00     5.00      -8.93 -999.99   -8.93    0.00000     0.00  LINEAR    1.06648E-01  -118.94    0.00000E+00     0.00
   75.00     5.00      -6.41 -999.99   -6.41    0.00000     0.00  LINEAR    1.42394E-01  -147.92    0.00000E+00     0.00
   80.00     5.00      -6.71 -999.99   -6.71    0.00000     0.00  LINEAR    1.37619E-01    27.53    0.00000E+00     0.00
   85.00     5.00       0.53 -999.99    0.53    0.00000     0.00  LINEAR    3.16677E-01     8.44    0.00000E+00     0.00
   90.00     5.00      -7.64 -999.99   -7.64    0.00000     0.00  LINEAR    1.23687E-01    31.25    0.00000E+00     0.00
    0.00    10.00    -999.99 -999.99 -999.99    0.00000     0.00            0.00000E+00     0.00    0.00000E+00     0.00
    5.00    10.00      -5.91 -999.99   -5.91    0.00000     0.00  LINEAR    1.50820E-01  -147.90    0.00000E+00     0.00
   10.00    10.00       0.42 -999.99    0.42    0.00000     0.00  LINEAR    3.12726E-01    80.80    0.00000E+00     0.00
   15.00    10.00       4.85 -999.99    4.85    0.00000     0.00  LINEAR    5.20910E-01   -44.87    0.00000E+00     0.00
   20.00    10.00       6.16 -999.99    6.16    0.00000     0.00  LINEAR    6.05917E-01  -167.84    0.00000E+00     0.00
   25.00    10.00       6.79 -999.99    6.79    0.00000     0.00  LINEAR    6.51430E-01    75.20    0.00000E+00     0.00
   30.00    10.00       5.27 -999.99    5.27    0.00000     0.00  LINEAR    5.46470E-01   -46.29    0.00000E+00     0.00
   35.00    10.00       0.49 -999.99    0.49    0.00000     0.00  LINEAR    3.15284E-01  -154.67    0.00000E+00     0.00
   40.00    10.00     -18.69 -999.99  -18.69    0.00000     0.00  LINEAR    3.46313E-02   -65.97    0.00000E+00     0.00
   45.00    10.00      -2.95 -999.99   -2.95    0.00000     0.00  LINEAR    2.12293E-01  -163.94    0.00000E+00     0.00
   50.00    10.00      -6.83 -999.99   -6.83    0.00000     0.00  LINEAR    1.35720E-01   104.27    0.00000E+00     0.00
   55.00    10.00      -5.83 -999.99   -5.83    0.00000     0.00  LINEAR    1.52317E-01  -150.43    0.00000E+00     0.00
   60.00    10.00       0.75 -999.99    0.75    0.00000     0.00  LINEAR    3.24822E-01   133.71    0.00000E+00     0.00
   65.00    10.00      -3.68 -999.99   -3.68    0.00000     0.00  LINEAR    1.95185E-01    76.89    0.00000E+00     0.00
   70.00    10.00      -7.34 -999.99   -7.34    0.00000     0.00  LINEAR    1.27949E-01  -163.72    0.00000E+00     0.00
   75.00    10.00      -5.13 -999.99   -5.13    0.00000     0.00  LINEAR    1.65084E-01   157.68    0.00000E+00     0.00
   80.00    10.00      -6.44 -999.99   -6.44    0.00000     0.00  LINEAR    1.41944E-01   -20.71    0.00000E+00     0.00
   85.00    10.00       0.71 -999.99    0.71    0.00000     0.00  LINEAR    3.23399E-01   -44.94    0.00000E+00     0.00
   90.00    10.00      -7.72 -999.99   -7.72    0.00000     0.00  LINEAR    1.22451E-01   -25.72    0.00000E+00     0.00
    0.00    15.00    -999.99 -999.99 -999.99    0.00000     0.00            0.00000E+00     0.00    0.00000E+00     0.00
    5.00    15.00      -5.98 -999.99   -5.98    0.00000     0.00  LINEAR    1.49630E-01  -152.45    0.00000E+00     0.00
   10.00    15.00       0.40 -999.99    0.40    0.00000     0.00  LINEAR    3.11933E-01    71.14    0.00000E+00     0.00
   15.00    15.00       4.91 -999.99    4.91    0.00000     0.00  LINEAR    5.24324E-01   -57.99    0.00000E+00     0.00
   20.00    15.00       6.14 -999.99    6.14    0.00000     0.00  LINEAR    6.04265E-01   173.97    0.00000E+00     0.00
   25.00    15.00       6.71 -999.99    6.71    0.00000     0.00  LINEAR    6.45412E-01    52.41    0.00000E+00     0.00
   30.00    15.00       5.48 -999.99    5.48    0.00000     0.00  LINEAR    5.59880E-01   -73.46    0.00000E+00     0.00
   35.00    15.00       0.47 -999.99    0.47    0.00000     0.00  LINEAR    3.14568E-01   175.69    0.00000E+00     0.00
   40.00    15.00     -16.60 -999.99  -16.60    0.00000     0.00  LINEAR    4.41011E-02   -78.23    0.00000E+00     0.00
   45.00    15.00      -2.39 -999.99   -2.39    0.00000     0.00  LINEAR    2.26195E-01   163.58    0.00000E+00     0.00
   50.00    15.00      -6.79 -999.99   -6.79    0.00000     0.00  LINEAR    1.36379E-01    69.75    0.00000E+00     0.00
   55.00    15.00      -4.91 -999.99   -4.91    0.00000     0.00  LINEAR    1.69318E-01   162.67    0.00000E+00     0.00
   60.00    15.00       1.87 -999.99    1.87    0.00000     0.00  LINEAR    3.69591E-01    93.39    0.00000E+00     0.00
   65.00    15.00      -2.49 -999.99   -2.49    0.00000     0.00  LINEAR    2.23820E-01    38.09    0.00000E+00     0.00
   70.00    15.00      -8.52 -999.99   -8.52    0.00000     0.00  LINEAR    1.11677E-01   146.48    0.00000E+00     0.00
   75.00    15.00      -5.86 -999.99   -5.86    0.00000     0.00  LINEAR    1.51818E-01   114.82    0.00000E+00     0.00
   80.00    15.00      -7.35 -999.99   -7.35    0.00000     0.00  LINEAR    1.27887E-01   -77.75    0.00000E+00     0.00
   85.00    15.00       0.14 -999.99    0.14    0.00000     0.00  LINEAR    3.02721E-01   -98.34    0.00000E+00     0.00
   90.00    15.00      -7.74 -999.99   -7.74    0.00000     0.00  LINEAR    1.22251E-01   -82.75    0.00000E+00     0.00
    0.00    20.00    -999.99 -999.99 -999.99    0.00000     0.00            0.00000E+00     0.00    0.00000E+00     0.00
    5.00    20.00      -6.05 -999.99   -6.05    0.00000     0.00  LINEAR    1.48419E-01  -155.97    0.00000E+00     0.00
   10.00    20.00       0.42 -999.99    0.42    0.00000     0.00  LINEAR    3.12588E-01    63.51    0.00000E+00     0.00
   15.00    20.00       4.96 -999.99    4.96    0.00000     0.00  LINEAR    5.27255E-01   -68.39    0.00000E+00     0.00
   20.00    20.00       6.17 -999.99    6.17    0.00000     0.00  LINEAR    6.06664E-01   160.25    0.00000E+00     0.00
   25.00    20.00       6.84 -999.99    6.84    0.00000     0.00  LINEAR    6.54729E-01    34.23    0.00000E+00     0.00
   30.00    20.00       5.75 -999.99    5.75    0.00000     0.00  LINEAR    5.77483E-01   -92.94    0.00000E+00     0.00
   35.00    20.00       0.54 -999.99    0.54    0.00000     0.00  LINEAR    3.17025E-01   153.06    0.00000E+00     0.00
   40.00    20.00     -17.00 -999.99  -17.00    0.00000     0.00  LINEAR    4.21116E-02   -79.70    0.00000E+00     0.00
   45.00    20.00      -2.46 -999.99   -2.46    0.00000     0.00  LINEAR    2.24432E-01   140.13    0.00000E+00     0.00
   50.00    20.00      -7.55 -999.99   -7.55    0.00000     0.00  LINEAR    1.24995E-01    45.02    0.00000E+00     0.00
   55.00    20.00      -4.02 -999.99   -4.02    0.00000     0.00  LINEAR    1.87572E-01   129.33    0.00000E+00     0.00
   60.00    20.00       2.08 -999.99    2.08    0.00000     0.00  LINEAR    3.78770E-01    64.06    0.00000E+00     0.00
   65.00    20.00      -2.79 -999.99   -2.79    0.00000     0.00  LINEAR    2.16094E-01    10.60    0.00000E+00     0.00
   70.00    20.00      -7.86 -999.99   -7.86    0.00000     0.00  LINEAR    1.20629E-01   101.02    0.00000E+00     0.00
   75.00    20.00      -6.38 -999.99   -6.38    0.00000     0.00  LINEAR    1.42965E-01    73.40    0.00000E+00     0.00
   80.00    20.00      -5.66 -999.99   -5.66    0.00000     0.00  LINEAR    1.55276E-01  -120.48    0.00000E+00     0.00
   85.00    20.00       1.10 -999.99    1.10    0.00000     0.00  LINEAR    3.38416E-01  -138.43    0.00000E+00     0.00
   90.00    20.00      -6.39 -999.99   -6.39    0.00000     0.00  LINEAR    1.42742E-01  -121.49    0.00000E+00     0.00
    0.00    25.00    -999.99 -999.99 -999.99    0.00000     0.00            0.00000E+00     0.00    0.00000E+00     0.00
    5.00    25.00      -6.12 -999.99   -6.12    0.00000     0.00  LINEAR    1.47223E-01  -158.41    0.00000E+00     0.00
   10.00    25.00       0.47 -999.99    0.47    0.00000     0.00  LINEAR    3.14621E-01    58.03    0.00000E+00     0.00
   15.00    25.00       5.00 -999.99    5.00    0.00000     0.00  LINEAR    5.30014E-01   -75.90    0.00000E+00     0.00
   20.00    25.00       6.26 -999.99    6.26    0.00000     0.00  LINEAR    6.12361E-01   151.27    0.00000E+00     0.00
   25.00    25.00       7.07 -999.99    7.07    0.00000     0.00  LINEAR    6.72156E-01    21.56    0.00000E+00     0.00
   30.00    25.00       5.89 -999.99    5.89    0.00000     0.00  LINEAR    5.87021E-01  -104.86    0.00000E+00     0.00
   35.00    25.00       0.68 -999.99    0.68    0.00000     0.00  LINEAR    3.22112E-01   137.99    0.00000E+00     0.00
   40.00    25.00     -20.06 -999.99  -20.06    0.00000     0.00  LINEAR    2.96028E-02   -71.56    0.00000E+00     0.00
   45.00    25.00      -3.04 -999.99   -3.04    0.00000     0.00  LINEAR    2.09994E-01   118.04    0.00000E+00     0.00
   50.00    25.00      -8.26 -999.99   -8.26    0.00000     0.00  LINEAR    1.15164E-01    20.62    0.00000E+00     0.00
   55.00    25.00      -3.90 -999.99   -3.90    0.00000     0.00  LINEAR    1.90301E-01   110.57    0.00000E+00     0.00
   60.00    25.00       1.95 -999.99    1.95    0.00000     0.00  LINEAR    3.73003E-01    41.06    0.00000E+00     0.00
   65.00    25.00      -3.23 -999.99   -3.23    0.00000     0.00  LINEAR    2.05455E-01   -14.57    0.00000E+00     0.00
   70.00    25.00      -8.59 -999.99   -8.59    0.00000     0.00  LINEAR    1.10788E-01    83.06    0.00000E+00     0.00
   75.00    25.00      -7.33 -999.99   -7.33    0.00000     0.00  LINEAR    1.28117E-01    46.95    0.00000E+00     0.00
   80.00    25.00      -5.99 -999.99   -5.99    0.00000     0.00  LINEAR    1.49469E-01  -143.20    0.00000E+00     0.00
   85.00    25.00       0.54 -999.99    0.54    0.00000     0.00  LINEAR    3.17159E-01  -163.90    0.00000E+00     0.00
   90.00    25.00      -6.85 -999.99   -6.85    0.00000     0.00  LINEAR    1.35481E-01  -145.12    0.00000E+00     0.00
    0.00    30.00    -999.99 -999.99 -999.99    0.00000     0.00            0.00000E+00     0.00    0.00000E+00     0.00
    5.00    30.00      -6.19 -999.99   -6.19    0.00000     0.00  LINEAR    1.46090E-01  -159.73    0.00000E+00     0.00
   10.00    30.00       0.56 -999.99    0.56    0.00000     0.00  LINEAR    3.17789E-01    54.77    0.00000E+00     0.00
   15.00    30.00       5.03 -999.99    5.03    0.00000     0.00  LINEAR    5.31742E-01   -80.28    0.00000E+00     0.00
   20.00    30.00       6.38 -999.99    6.38    0.00000     0.00  LINEAR    6.21121E-01   147.01    0.00000E+00     0.00
   25.00    30.00       7.23 -999.99    7.23    0.00000     0.00  LINEAR    6.84645E-01    14.53    0.00000E+00     0.00
   30.00    30.00       5.91 -999.99    5.91    0.00000     0.00  LINEAR    5.88770E-01  -110.25    0.00000E+00     0.00
   35.00    30.00       0.78 -999.99    0.78    0.00000     0.00  LINEAR    3.25948E-01   130.46    0.00000E+00     0.00
   40.00    30.00     -26.77 -999.99  -26.77    0.00000     0.00  LINEAR    1.36713E-02   -62.29    0.00000E+00     0.00
   45.00    30.00      -3.21 -999.99   -3.21    0.00000     0.00  LINEAR    2.05971E-01    99.44    0.00000E+00     0.00
   50.00    30.00      -7.16 -999.99   -7.16    0.00000     0.00  LINEAR    1.30620E-01     1.55    0.00000E+00     0.00
   55.00    30.00      -4.74 -999.99   -4.74    0.00000     0.00  LINEAR    1.72629E-01   103.08    0.00000E+00     0.00
   60.00    30.00       1.22 -999.99    1.22    0.00000     0.00  LINEAR    3.42857E-01    26.76    0.00000E+00     0.00
   65.00    30.00      -3.94 -999.99   -3.94    0.00000     0.00  LINEAR    1.89382E-01   -32.93    0.00000E+00     0.00
   70.00    30.00      -9.06 -999.99   -9.06    0.00000     0.00  LINEAR    1.05027E-01    80.22    0.00000E+00     0.00
   75.00    30.00      -8.43 -999.99   -8.43    0.00000     0.00  LINEAR    1.12884E-01    33.46    0.00000E+00     0.00
   80.00    30.00      -6.78 -999.99   -6.78    0.00000     0.00  LINEAR    1.36586E-01  -154.23    0.00000E+00     0.00
   85.00    30.00      -0.43 -999.99   -0.43    0.00000     0.00  LINEAR    2.83441E-01  -179.11    0.00000E+00     0.00
   90.00    30.00      -7.37 -999.99   -7.37    0.00000     0.00  LINEAR    1.27581E-01  -157.42    0.00000E+00     0.00
    0.00    35.00    -999.99 -999.99 -999.99    0.00000     0.00            0.00000E+00     0.00    0.00000E+00     0.00
    5.00    35.00      -6.25 -999.99   -6.25    0.00000     0.00  LINEAR    1.45080E-01  -159.91    0.00000E+00     0.00
   10.00    35.00       0.66 -999.99    0.66    0.00000     0.00  LINEAR    3.21673E-01    53.73    0.00000E+00     0.00
   15.00    35.00       5.02 -999.99    5.02    0.00000     0.00  LINEAR    5.31199E-01   -81.31    0.00000E+00     0.00
   20.00    35.00       6.54 -999.99    6.54    0.00000     0.00  LINEAR    6.32708E-01   147.01    0.00000E+00     0.00
   25.00    35.00       7.23 -999.99    7.23    0.00000     0.00  LINEAR    6.84674E-01    13.04    0.00000E+00     0.00
   30.00    35.00       5.94 -999.99    5.94    0.00000     0.00  LINEAR    5.90734E-01  -110.09    0.00000E+00     0.00
   35.00    35.00       0.77 -999.99    0.77    0.00000     0.00  LINEAR    3.25699E-01   130.08    0.00000E+00     0.00
   40.00    35.00     -43.42 -999.99  -43.42    0.00000     0.00  LINEAR    2.00999E-03   -80.19    0.00000E+00     0.00
   45.00    35.00      -3.12 -999.99   -3.12    0.00000     0.00  LINEAR    2.07973E-01    92.66    0.00000E+00     0.00
   50.00    35.00      -5.95 -999.99   -5.95    0.00000     0.00  LINEAR    1.50220E-01    -4.20    0.00000E+00     0.00
   55.00    35.00      -5.26 -999.99   -5.26    0.00000     0.00  LINEAR    1.62650E-01    97.47    0.00000E+00     0.00
   60.00    35.00       0.96 -999.99    0.96    0.00000     0.00  LINEAR    3.32991E-01    21.60    0.00000E+00     0.00
   65.00    35.00      -3.62 -999.99   -3.62    0.00000     0.00  LINEAR    1.96427E-01   -42.57    0.00000E+00     0.00
   70.00    35.00      -9.07 -999.99   -9.07    0.00000     0.00  LINEAR    1.04930E-01    71.62    0.00000E+00     0.00
   75.00    35.00      -6.68 -999.99   -6.68    0.00000     0.00  LINEAR    1.38155E-01    29.64    0.00000E+00     0.00
   80.00    35.00      -7.27 -999.99   -7.27    0.00000     0.00  LINEAR    1.29031E-01  -158.05    0.00000E+00     0.00
   85.00    35.00      -0.17 -999.99   -0.17    0.00000     0.00  LINEAR    2.92368E-01   177.99    0.00000E+00     0.00
   90.00    35.00      -7.58 -999.99   -7.58    0.00000     0.00  LINEAR    1.24576E-01  -162.50    0.00000E+00     0.00
    0.00    40.00    -999.99 -999.99 -999.99    0.00000     0.00            0.00000E+00     0.00    0.00000E+00     0.00
    5.00    40.00      -6.30 -999.99   -6.30    0.00000     0.00  LINEAR    1.44270E-01  -158.90    0.00000E+00     0.00
   10.00    40.00       0.77 -999.99    0.77    0.00000     0.00  LINEAR    3.25647E-01    54.86    0.00000E+00     0.00
   15.00    40.00       4.97 -999.99    4.97    0.00000     0.00  LINEAR    5.28037E-01   -78.80    0.00000E+00     0.00
   20.00    40.00       6.71 -999.99    6.71    0.00000     0.00  LINEAR    6.44953E-01   150.66    0.00000E+00     0.00
   25.00    40.00       7.11 -999.99    7.11    0.00000     0.00  LINEAR    6.75695E-01    17.21    0.00000E+00     0.00
   30.00    40.00       6.01 -999.99    6.01    0.00000     0.00  LINEAR    5.95009E-01  -104.91    0.00000E+00     0.00
   35.00    40.00       0.71 -999.99    0.71    0.00000     0.00  LINEAR    3.23374E-01   136.67    0.00000E+00     0.00
   40.00    40.00     -41.44 -999.99  -41.44    0.00000     0.00  LINEAR    2.52357E-03    -1.43    0.00000E+00     0.00
   45.00    40.00      -3.14 -999.99   -3.14    0.00000     0.00  LINEAR    2.07658E-01    95.98    0.00000E+00     0.00
   50.00    40.00      -5.85 -999.99   -5.85    0.00000     0.00  LINEAR    1.51880E-01    -0.05    0.00000E+00     0.00
   55.00    40.00      -4.98 -999.99   -4.98    0.00000     0.00  LINEAR    1.67893E-01   100.05    0.00000E+00     0.00
   60.00    40.00       1.94 -999.99    1.94    0.00000     0.00  LINEAR    3.72527E-01    29.22    0.00000E+00     0.00
   65.00    40.00      -2.32 -999.99   -2.32    0.00000     0.00  LINEAR    2.28160E-01   -32.51    0.00000E+00     0.00
   70.00    40.00     -11.12 -999.99  -11.12    0.00000     0.00  LINEAR    8.28469E-02    65.16    0.00000E+00     0.00
   75.00    40.00      -6.17 -999.99   -6.17    0.00000     0.00  LINEAR    1.46536E-01    33.84    0.00000E+00     0.00
   80.00    40.00      -7.89 -999.99   -7.89    0.00000     0.00  LINEAR    1.20161E-01  -159.31    0.00000E+00     0.00
   85.00    40.00       0.25 -999.99    0.25    0.00000     0.00  LINEAR    3.06837E-01  -178.95    0.00000E+00     0.00
   90.00    40.00      -7.70 -999.99   -7.70    0.00000     0.00  LINEAR    1.22786E-01  -161.32    0.00000E+00     0.00
    0.00    45.00    -999.99 -999.99 -999.99    0.00000     0.00            0.00000E+00     0.00    0.00000E+00     0.00
    5.00    45.00      -6.33 -999.99   -6.33    0.00000     0.00  LINEAR    1.43749E-01  -156.72    0.00000E+00     0.00
   10.00    45.00       0.86 -999.99    0.86    0.00000     0.00  LINEAR    3.28882E-01    58.11    0.00000E+00     0.00
   15.00    45.00       4.90 -999.99    4.90    0.00000     0.00  LINEAR    5.23706E-01   -72.68    0.00000E+00     0.00
   20.00    45.00       6.81 -999.99    6.81    0.00000     0.00  LINEAR    6.52672E-01   157.57    0.00000E+00     0.00
   25.00    45.00       7.03 -999.99    7.03    0.00000     0.00  LINEAR    6.69116E-01    27.07    0.00000E+00     0.00
   30.00    45.00       6.02 -999.99    6.02    0.00000     0.00  LINEAR    5.96037E-01   -94.27    0.00000E+00     0.00
   35.00    45.00       0.72 -999.99    0.72    0.00000     0.00  LINEAR    3.23851E-01   149.70    0.00000E+00     0.00
   40.00    45.00     -29.00 -999.99  -29.00    0.00000     0.00  LINEAR    1.05744E-02   -23.18    0.00000E+00     0.00
   45.00    45.00      -3.30 -999.99   -3.30    0.00000     0.00  LINEAR    2.03881E-01   106.60    0.00000E+00     0.00
   50.00    45.00      -5.96 -999.99   -5.96    0.00000     0.00  LINEAR    1.50100E-01    16.22    0.00000E+00     0.00
   55.00    45.00      -4.84 -999.99   -4.84    0.00000     0.00  LINEAR    1.70779E-01   121.22    0.00000E+00     0.00
   60.00    45.00       2.19 -999.99    2.19    0.00000     0.00  LINEAR    3.83475E-01    48.42    0.00000E+00     0.00
   65.00    45.00      -2.10 -999.99   -2.10    0.00000     0.00  LINEAR    2.33871E-01    -8.88    0.00000E+00     0.00
   70.00    45.00     -10.56 -999.99  -10.56    0.00000     0.00  LINEAR    8.83642E-02    91.89    0.00000E+00     0.00
   75.00    45.00      -6.96 -999.99   -6.96    0.00000     0.00  LINEAR    1.33687E-01    59.55    0.00000E+00     0.00
   80.00    45.00      -7.23 -999.99   -7.23    0.00000     0.00  LINEAR    1.29643E-01  -137.56    0.00000E+00     0.00
   85.00    45.00       0.36 -999.99    0.36    0.00000     0.00  LINEAR    3.10481E-01  -156.13    0.00000E+00     0.00
   90.00    45.00      -6.94 -999.99   -6.94    0.00000     0.00  LINEAR    1.34052E-01  -137.80    0.00000E+00     0.00
    0.00    50.00    -999.99 -999.99 -999.99    0.00000     0.00            0.00000E+00     0.00    0.00000E+00     0.00
    5.00    50.00      -6.34 -999.99   -6.34    0.00000     0.00  LINEAR    1.43618E-01  -153.37    0.00000E+00     0.00
   10.00    50.00       0.90 -999.99    0.90    0.00000     0.00  LINEAR    3.30440E-01    63.45    0.00000E+00     0.00
   15.00    50.00       4.85 -999.99    4.85    0.00000     0.00  LINEAR    5.20984E-01   -63.14    0.00000E+00     0.00
   20.00    50.00       6.78 -999.99    6.78    0.00000     0.00  LINEAR    6.50420E-01   168.01    0.00000E+00     0.00
   25.00    50.00       7.06 -999.99    7.06    0.00000     0.00  LINEAR    6.72083E-01    41.94    0.00000E+00     0.00
   30.00    50.00       6.01 -999.99    6.01    0.00000     0.00  LINEAR    5.95109E-01   -77.35    0.00000E+00     0.00
   35.00    50.00       0.78 -999.99    0.78    0.00000     0.00  LINEAR    3.26065E-01   168.29    0.00000E+00     0.00
   40.00    50.00     -27.98 -999.99  -27.98    0.00000     0.00  LINEAR    1.18943E-02   -53.56    0.00000E+00     0.00
   45.00    50.00      -3.61 -999.99   -3.61    0.00000     0.00  LINEAR    1.96663E-01   131.91    0.00000E+00     0.00
   50.00    50.00      -5.64 -999.99   -5.64    0.00000     0.00  LINEAR    1.55743E-01    43.96    0.00000E+00     0.00
   55.00    50.00      -4.84 -999.99   -4.84    0.00000     0.00  LINEAR    1.70604E-01   148.43    0.00000E+00     0.00
   60.00    50.00       1.73 -999.99    1.73    0.00000     0.00  LINEAR    3.63480E-01    77.66    0.00000E+00     0.00
[...]
   40.00   315.00     -53.54 -999.99  -53.54    0.00000     0.00  LINEAR    6.26572E-04    42.24    0.00000E+00     0.00
   45.00   315.00      -2.63 -999.99   -2.63    0.00000     0.00  LINEAR    2.20090E-01   -59.31    0.00000E+00     0.00
   50.00   315.00      -5.40 -999.99   -5.40    0.00000     0.00  LINEAR    1.60032E-01   -79.20    0.00000E+00     0.00
   55.00   315.00      -5.87 -999.99   -5.87    0.00000     0.00  LINEAR    1.51532E-01    88.61    0.00000E+00     0.00
   60.00   315.00       2.50 -999.99    2.50    0.00000     0.00  LINEAR    3.97443E-01    69.93    0.00000E+00     0.00
   65.00   315.00      -1.55 -999.99   -1.55    0.00000     0.00  LINEAR    2.49163E-01    59.43    0.00000E+00     0.00
   70.00   315.00     -10.27 -999.99  -10.27    0.00000     0.00  LINEAR    9.13845E-02  -144.38    0.00000E+00     0.00
   75.00   315.00      -6.73 -999.99   -6.73    0.00000     0.00  LINEAR    1.37249E-01  -148.51    0.00000E+00     0.00
   80.00   315.00      -5.81 -999.99   -5.81    0.00000     0.00  LINEAR    1.52587E-01    38.60    0.00000E+00     0.00
   85.00   315.00       1.02 -999.99    1.02    0.00000     0.00  LINEAR    3.35262E-01    35.03    0.00000E+00     0.00
   90.00   315.00      -6.25 -999.99   -6.25    0.00000     0.00  LINEAR    1.45146E-01    55.66    0.00000E+00     0.00
    0.00   320.00    -999.99 -999.99 -999.99    0.00000     0.00            0.00000E+00     0.00    0.00000E+00     0.00
    5.00   320.00      -5.42 -999.99   -5.42    0.00000     0.00  LINEAR    1.59735E-01   -57.95    0.00000E+00     0.00
   10.00   320.00       0.77 -999.99    0.77    0.00000     0.00  LINEAR    3.25767E-01   -96.83    0.00000E+00     0.00
   15.00   320.00       4.65 -999.99    4.65    0.00000     0.00  LINEAR    5.09087E-01  -137.34    0.00000E+00     0.00
   20.00   320.00       6.74 -999.99    6.74    0.00000     0.00  LINEAR    6.47152E-01  -173.85    0.00000E+00     0.00
   25.00   320.00       6.93 -999.99    6.93    0.00000     0.00  LINEAR    6.61706E-01   146.70    0.00000E+00     0.00
   30.00   320.00       5.77 -999.99    5.77    0.00000     0.00  LINEAR    5.79211E-01   113.66    0.00000E+00     0.00
   35.00   320.00       0.39 -999.99    0.39    0.00000     0.00  LINEAR    3.11510E-01    80.59    0.00000E+00     0.00
   40.00   320.00     -44.36 -999.99  -44.36    0.00000     0.00  LINEAR    1.80381E-03   -32.15    0.00000E+00     0.00
   45.00   320.00      -3.22 -999.99   -3.22    0.00000     0.00  LINEAR    2.05725E-01  -159.55    0.00000E+00     0.00
   50.00   320.00      -5.97 -999.99   -5.97    0.00000     0.00  LINEAR    1.49849E-01  -178.90    0.00000E+00     0.00
   55.00   320.00      -6.26 -999.99   -6.26    0.00000     0.00  LINEAR    1.44979E-01   -39.15    0.00000E+00     0.00
   60.00   320.00       1.55 -999.99    1.55    0.00000     0.00  LINEAR    3.56027E-01   -49.02    0.00000E+00     0.00
   65.00   320.00      -2.28 -999.99   -2.28    0.00000     0.00  LINEAR    2.29197E-01   -62.96    0.00000E+00     0.00
   70.00   320.00     -10.92 -999.99  -10.92    0.00000     0.00  LINEAR    8.47449E-02    74.04    0.00000E+00     0.00
   75.00   320.00      -5.98 -999.99   -5.98    0.00000     0.00  LINEAR    1.49735E-01    73.51    0.00000E+00     0.00
   80.00   320.00      -6.79 -999.99   -6.79    0.00000     0.00  LINEAR    1.36390E-01   -96.06    0.00000E+00     0.00
   85.00   320.00       0.93 -999.99    0.93    0.00000     0.00  LINEAR    3.31751E-01  -102.40    0.00000E+00     0.00
   90.00   320.00      -6.71 -999.99   -6.71    0.00000     0.00  LINEAR    1.37689E-01   -82.15    0.00000E+00     0.00
    0.00   325.00    -999.99 -999.99 -999.99    0.00000     0.00            0.00000E+00     0.00    0.00000E+00     0.00
    5.00   325.00      -5.44 -999.99   -5.44    0.00000     0.00  LINEAR    1.59211E-01   -69.52    0.00000E+00     0.00
   10.00   325.00       0.66 -999.99    0.66    0.00000     0.00  LINEAR    3.21622E-01  -120.87    0.00000E+00     0.00
   15.00   325.00       4.67 -999.99    4.67    0.00000     0.00  LINEAR    5.09946E-01  -171.84    0.00000E+00     0.00
   20.00   325.00       6.54 -999.99    6.54    0.00000     0.00  LINEAR    6.32422E-01   140.48    0.00000E+00     0.00
   25.00   325.00       7.12 -999.99    7.12    0.00000     0.00  LINEAR    6.76272E-01    89.91    0.00000E+00     0.00
   30.00   325.00       5.38 -999.99    5.38    0.00000     0.00  LINEAR    5.53465E-01    46.66    0.00000E+00     0.00
   35.00   325.00       0.31 -999.99    0.31    0.00000     0.00  LINEAR    3.08884E-01     0.96    0.00000E+00     0.00
   40.00   325.00     -38.62 -999.99  -38.62    0.00000     0.00  LINEAR    3.49196E-03    68.73    0.00000E+00     0.00
   45.00   325.00      -3.11 -999.99   -3.11    0.00000     0.00  LINEAR    2.08421E-01   103.91    0.00000E+00     0.00
   50.00   325.00      -7.22 -999.99   -7.22    0.00000     0.00  LINEAR    1.29830E-01    74.46    0.00000E+00     0.00
   55.00   325.00      -4.70 -999.99   -4.70    0.00000     0.00  LINEAR    1.73518E-01  -147.11    0.00000E+00     0.00
   60.00   325.00       2.06 -999.99    2.06    0.00000     0.00  LINEAR    3.77610E-01  -169.75    0.00000E+00     0.00
   65.00   325.00      -1.60 -999.99   -1.60    0.00000     0.00  LINEAR    2.47793E-01   174.32    0.00000E+00     0.00
   70.00   325.00     -10.32 -999.99  -10.32    0.00000     0.00  LINEAR    9.08137E-02   -57.62    0.00000E+00     0.00
   75.00   325.00      -5.75 -999.99   -5.75    0.00000     0.00  LINEAR    1.53675E-01   -53.03    0.00000E+00     0.00
   80.00   325.00      -8.16 -999.99   -8.16    0.00000     0.00  LINEAR    1.16417E-01   124.68    0.00000E+00     0.00
   85.00   325.00       0.01 -999.99    0.01    0.00000     0.00  LINEAR    2.98499E-01   120.21    0.00000E+00     0.00
   90.00   325.00      -7.93 -999.99   -7.93    0.00000     0.00  LINEAR    1.19549E-01   141.58    0.00000E+00     0.00
    0.00   330.00    -999.99 -999.99 -999.99    0.00000     0.00            0.00000E+00     0.00    0.00000E+00     0.00
    5.00   330.00      -5.48 -999.99   -5.48    0.00000     0.00  LINEAR    1.58529E-01   -80.72    0.00000E+00     0.00
   10.00   330.00       0.64 -999.99    0.64    0.00000     0.00  LINEAR    3.20689E-01  -144.20    0.00000E+00     0.00
   15.00   330.00       4.65 -999.99    4.65    0.00000     0.00  LINEAR    5.09078E-01   155.28    0.00000E+00     0.00
   20.00   330.00       6.34 -999.99    6.34    0.00000     0.00  LINEAR    6.18129E-01    95.67    0.00000E+00     0.00
   25.00   330.00       7.16 -999.99    7.16    0.00000     0.00  LINEAR    6.79494E-01    35.35    0.00000E+00     0.00
   30.00   330.00       5.29 -999.99    5.29    0.00000     0.00  LINEAR    5.48020E-01   -21.65    0.00000E+00     0.00
   35.00   330.00       0.51 -999.99    0.51    0.00000     0.00  LINEAR    3.15933E-01   -74.28    0.00000E+00     0.00
   40.00   330.00     -27.16 -999.99  -27.16    0.00000     0.00  LINEAR    1.30624E-02    -6.08    0.00000E+00     0.00
   45.00   330.00      -2.57 -999.99   -2.57    0.00000     0.00  LINEAR    2.21587E-01     7.42    0.00000E+00     0.00
   50.00   330.00      -6.42 -999.99   -6.42    0.00000     0.00  LINEAR    1.42375E-01   -29.44    0.00000E+00     0.00
   55.00   330.00      -4.31 -999.99   -4.31    0.00000     0.00  LINEAR    1.81372E-01   118.42    0.00000E+00     0.00
   60.00   330.00       2.39 -999.99    2.39    0.00000     0.00  LINEAR    3.92357E-01    86.41    0.00000E+00     0.00
   65.00   330.00      -1.61 -999.99   -1.61    0.00000     0.00  LINEAR    2.47451E-01    67.30    0.00000E+00     0.00
   70.00   330.00      -9.16 -999.99   -9.16    0.00000     0.00  LINEAR    1.03809E-01   172.04    0.00000E+00     0.00
   75.00   330.00      -6.27 -999.99   -6.27    0.00000     0.00  LINEAR    1.44848E-01   178.83    0.00000E+00     0.00
   80.00   330.00      -6.62 -999.99   -6.62    0.00000     0.00  LINEAR    1.39081E-01    -6.60    0.00000E+00     0.00
   85.00   330.00       0.82 -999.99    0.82    0.00000     0.00  LINEAR    3.27338E-01   -10.81    0.00000E+00     0.00
   90.00   330.00      -7.24 -999.99   -7.24    0.00000     0.00  LINEAR    1.29554E-01     8.77    0.00000E+00     0.00
    0.00   335.00    -999.99 -999.99 -999.99    0.00000     0.00            0.00000E+00     0.00    0.00000E+00     0.00
    5.00   335.00      -5.53 -999.99   -5.53    0.00000     0.00  LINEAR    1.57739E-01   -91.49    0.00000E+00     0.00
   10.00   335.00       0.67 -999.99    0.67    0.00000     0.00  LINEAR    3.22009E-01  -166.32    0.00000E+00     0.00
   15.00   335.00       4.54 -999.99    4.54    0.00000     0.00  LINEAR    5.02512E-01   123.78    0.00000E+00     0.00
   20.00   335.00       6.25 -999.99    6.25    0.00000     0.00  LINEAR    6.11951E-01    51.78    0.00000E+00     0.00
   25.00   335.00       7.26 -999.99    7.26    0.00000     0.00  LINEAR    6.87704E-01   -17.00    0.00000E+00     0.00
   30.00   335.00       5.74 -999.99    5.74    0.00000     0.00  LINEAR    5.77186E-01   -85.14    0.00000E+00     0.00
   35.00   335.00       0.55 -999.99    0.55    0.00000     0.00  LINEAR    3.17491E-01  -145.47    0.00000E+00     0.00
   40.00   335.00     -19.12 -999.99  -19.12    0.00000     0.00  LINEAR    3.29585E-02   -41.97    0.00000E+00     0.00
   45.00   335.00      -1.47 -999.99   -1.47    0.00000     0.00  LINEAR    2.51583E-01   -74.63    0.00000E+00     0.00
   50.00   335.00      -6.37 -999.99   -6.37    0.00000     0.00  LINEAR    1.43178E-01  -120.70    0.00000E+00     0.00
   55.00   335.00      -6.40 -999.99   -6.40    0.00000     0.00  LINEAR    1.42590E-01    14.96    0.00000E+00     0.00
   60.00   335.00       1.33 -999.99    1.33    0.00000     0.00  LINEAR    3.47270E-01   -22.54    0.00000E+00     0.00
   65.00   335.00      -3.61 -999.99   -3.61    0.00000     0.00  LINEAR    1.96758E-01   -48.43    0.00000E+00     0.00
   70.00   335.00      -8.81 -999.99   -8.81    0.00000     0.00  LINEAR    1.08103E-01    79.44    0.00000E+00     0.00
   75.00   335.00      -6.94 -999.99   -6.94    0.00000     0.00  LINEAR    1.34003E-01    63.33    0.00000E+00     0.00
   80.00   335.00      -5.36 -999.99   -5.36    0.00000     0.00  LINEAR    1.60709E-01  -117.90    0.00000E+00     0.00
   85.00   335.00       1.30 -999.99    1.30    0.00000     0.00  LINEAR    3.46153E-01  -127.24    0.00000E+00     0.00
   90.00   335.00      -6.05 -999.99   -6.05    0.00000     0.00  LINEAR    1.48559E-01  -107.96    0.00000E+00     0.00
    0.00   340.00    -999.99 -999.99 -999.99    0.00000     0.00            0.00000E+00     0.00    0.00000E+00     0.00
    5.00   340.00      -5.57 -999.99   -5.57    0.00000     0.00  LINEAR    1.56883E-01  -101.74    0.00000E+00     0.00
   10.00   340.00       0.72 -999.99    0.72    0.00000     0.00  LINEAR    3.23786E-01   173.07    0.00000E+00     0.00
   15.00   340.00       4.37 -999.99    4.37    0.00000     0.00  LINEAR    4.92943E-01    93.21    0.00000E+00     0.00
   20.00   340.00       6.39 -999.99    6.39    0.00000     0.00  LINEAR    6.22010E-01    10.28    0.00000E+00     0.00
   25.00   340.00       7.34 -999.99    7.34    0.00000     0.00  LINEAR    6.93639E-01   -65.65    0.00000E+00     0.00
   30.00   340.00       6.04 -999.99    6.04    0.00000     0.00  LINEAR    5.97621E-01  -142.39    0.00000E+00     0.00
   35.00   340.00       0.55 -999.99    0.55    0.00000     0.00  LINEAR    3.17509E-01   146.36    0.00000E+00     0.00
   40.00   340.00     -16.58 -999.99  -16.58    0.00000     0.00  LINEAR    4.41957E-02   -69.09    0.00000E+00     0.00
   45.00   340.00      -1.81 -999.99   -1.81    0.00000     0.00  LINEAR    2.41820E-01  -150.62    0.00000E+00     0.00
   50.00   340.00      -6.52 -999.99   -6.52    0.00000     0.00  LINEAR    1.40672E-01   149.41    0.00000E+00     0.00
   55.00   340.00      -5.30 -999.99   -5.30    0.00000     0.00  LINEAR    1.61885E-01   -86.89    0.00000E+00     0.00
   60.00   340.00       1.23 -999.99    1.23    0.00000     0.00  LINEAR    3.43208E-01  -125.37    0.00000E+00     0.00
   65.00   340.00      -3.14 -999.99   -3.14    0.00000     0.00  LINEAR    2.07561E-01  -159.68    0.00000E+00     0.00
   70.00   340.00     -10.33 -999.99  -10.33    0.00000     0.00  LINEAR    9.07260E-02   -56.71    0.00000E+00     0.00
   75.00   340.00      -6.43 -999.99   -6.43    0.00000     0.00  LINEAR    1.42090E-01   -61.89    0.00000E+00     0.00
   80.00   340.00      -7.42 -999.99   -7.42    0.00000     0.00  LINEAR    1.26804E-01   121.98    0.00000E+00     0.00
   85.00   340.00       0.20 -999.99    0.20    0.00000     0.00  LINEAR    3.04976E-01   110.68    0.00000E+00     0.00
   90.00   340.00      -7.44 -999.99   -7.44    0.00000     0.00  LINEAR    1.26511E-01   131.70    0.00000E+00     0.00
    0.00   345.00    -999.99 -999.99 -999.99    0.00000     0.00            0.00000E+00     0.00    0.00000E+00     0.00
    5.00   345.00      -5.62 -999.99   -5.62    0.00000     0.00  LINEAR    1.55985E-01  -111.38    0.00000E+00     0.00
   10.00   345.00       0.74 -999.99    0.74    0.00000     0.00  LINEAR    3.24487E-01   154.01    0.00000E+00     0.00
   15.00   345.00       4.27 -999.99    4.27    0.00000     0.00  LINEAR    4.87125E-01    63.70    0.00000E+00     0.00
   20.00   345.00       6.61 -999.99    6.61    0.00000     0.00  LINEAR    6.38093E-01   -27.28    0.00000E+00     0.00
   25.00   345.00       7.23 -999.99    7.23    0.00000     0.00  LINEAR    6.85391E-01  -111.23    0.00000E+00     0.00
   30.00   345.00       6.01 -999.99    6.01    0.00000     0.00  LINEAR    5.95311E-01   164.37    0.00000E+00     0.00
   35.00   345.00       0.70 -999.99    0.70    0.00000     0.00  LINEAR    3.22848E-01    82.31    0.00000E+00     0.00
   40.00   345.00     -17.12 -999.99  -17.12    0.00000     0.00  LINEAR    4.15341E-02  -101.35    0.00000E+00     0.00
   45.00   345.00      -2.65 -999.99   -2.65    0.00000     0.00  LINEAR    2.19662E-01   135.98    0.00000E+00     0.00
   50.00   345.00      -6.81 -999.99   -6.81    0.00000     0.00  LINEAR    1.36018E-01    67.07    0.00000E+00     0.00
   55.00   345.00      -5.17 -999.99   -5.17    0.00000     0.00  LINEAR    1.64374E-01  -174.94    0.00000E+00     0.00
   60.00   345.00       1.31 -999.99    1.31    0.00000     0.00  LINEAR    3.46687E-01   134.77    0.00000E+00     0.00
   65.00   345.00      -3.31 -999.99   -3.31    0.00000     0.00  LINEAR    2.03606E-01    96.45    0.00000E+00     0.00
   70.00   345.00      -6.95 -999.99   -6.95    0.00000     0.00  LINEAR    1.33892E-01  -143.40    0.00000E+00     0.00
   75.00   345.00      -5.12 -999.99   -5.12    0.00000     0.00  LINEAR    1.65371E-01  -164.54    0.00000E+00     0.00
   80.00   345.00      -5.43 -999.99   -5.43    0.00000     0.00  LINEAR    1.59551E-01    20.38    0.00000E+00     0.00
   85.00   345.00       1.37 -999.99    1.37    0.00000     0.00  LINEAR    3.49008E-01     4.77    0.00000E+00     0.00
   90.00   345.00      -6.74 -999.99   -6.74    0.00000     0.00  LINEAR    1.37201E-01    27.16    0.00000E+00     0.00
    0.00   350.00    -999.99 -999.99 -999.99    0.00000     0.00            0.00000E+00     0.00    0.00000E+00     0.00
    5.00   350.00      -5.67 -999.99   -5.67    0.00000     0.00  LINEAR    1.55052E-01  -120.34    0.00000E+00     0.00
   10.00   350.00       0.71 -999.99    0.71    0.00000     0.00  LINEAR    3.23472E-01   136.44    0.00000E+00     0.00
   15.00   350.00       4.31 -999.99    4.31    0.00000     0.00  LINEAR    4.89249E-01    36.08    0.00000E+00     0.00
   20.00   350.00       6.70 -999.99    6.70    0.00000     0.00  LINEAR    6.44327E-01   -60.99    0.00000E+00     0.00
   25.00   350.00       7.11 -999.99    7.11    0.00000     0.00  LINEAR    6.75645E-01  -154.36    0.00000E+00     0.00
   30.00   350.00       5.81 -999.99    5.81    0.00000     0.00  LINEAR    5.81806E-01   114.08    0.00000E+00     0.00
   35.00   350.00       0.87 -999.99    0.87    0.00000     0.00  LINEAR    3.29496E-01    24.32    0.00000E+00     0.00
   40.00   350.00     -19.01 -999.99  -19.01    0.00000     0.00  LINEAR    3.33977E-02  -135.82    0.00000E+00     0.00
   45.00   350.00      -4.15 -999.99   -4.15    0.00000     0.00  LINEAR    1.84701E-01    60.75    0.00000E+00     0.00
   50.00   350.00      -7.56 -999.99   -7.56    0.00000     0.00  LINEAR    1.24775E-01   -12.48    0.00000E+00     0.00
   55.00   350.00      -4.76 -999.99   -4.76    0.00000     0.00  LINEAR    1.72246E-01   104.90    0.00000E+00     0.00
   60.00   350.00       1.78 -999.99    1.78    0.00000     0.00  LINEAR    3.65831E-01    49.71    0.00000E+00     0.00
   65.00   350.00      -2.54 -999.99   -2.54    0.00000     0.00  LINEAR    2.22397E-01     6.03    0.00000E+00     0.00
   70.00   350.00      -9.56 -999.99   -9.56    0.00000     0.00  LINEAR    9.91033E-02   135.48    0.00000E+00     0.00
   75.00   350.00      -5.95 -999.99   -5.95    0.00000     0.00  LINEAR    1.50246E-01   105.59    0.00000E+00     0.00
   80.00   350.00      -8.08 -999.99   -8.08    0.00000     0.00  LINEAR    1.17606E-01   -74.83    0.00000E+00     0.00
   85.00   350.00      -0.19 -999.99   -0.19    0.00000     0.00  LINEAR    2.91387E-01   -94.60    0.00000E+00     0.00
   90.00   350.00      -8.44 -999.99   -8.44    0.00000     0.00  LINEAR    1.12771E-01   -76.35    0.00000E+00     0.00
    0.00   355.00    -999.99 -999.99 -999.99    0.00000     0.00            0.00000E+00     0.00    0.00000E+00     0.00
    5.00   355.00      -5.73 -999.99   -5.73    0.00000     0.00  LINEAR    1.54078E-01  -128.53    0.00000E+00     0.00
   10.00   355.00       0.65 -999.99    0.65    0.00000     0.00  LINEAR    3.20989E-01   120.28    0.00000E+00     0.00
   15.00   355.00       4.45 -999.99    4.45    0.00000     0.00  LINEAR    4.97687E-01    11.24    0.00000E+00     0.00
   20.00   355.00       6.60 -999.99    6.60    0.00000     0.00  LINEAR    6.37212E-01   -91.78    0.00000E+00     0.00
   25.00   355.00       7.11 -999.99    7.11    0.00000     0.00  LINEAR    6.75314E-01   166.21    0.00000E+00     0.00
   30.00   355.00       5.63 -999.99    5.63    0.00000     0.00  LINEAR    5.69712E-01    67.32    0.00000E+00     0.00
   35.00   355.00       0.83 -999.99    0.83    0.00000     0.00  LINEAR    3.27795E-01   -27.98    0.00000E+00     0.00
   40.00   355.00     -23.59 -999.99  -23.59    0.00000     0.00  LINEAR    1.97059E-02  -161.66    0.00000E+00     0.00
   45.00   355.00      -3.82 -999.99   -3.82    0.00000     0.00  LINEAR    1.91929E-01   -14.61    0.00000E+00     0.00
   50.00   355.00      -7.74 -999.99   -7.74    0.00000     0.00  LINEAR    1.22178E-01   -89.45    0.00000E+00     0.00
   55.00   355.00      -5.31 -999.99   -5.31    0.00000     0.00  LINEAR    1.61792E-01    32.25    0.00000E+00     0.00
   60.00   355.00       1.20 -999.99    1.20    0.00000     0.00  LINEAR    3.42184E-01   -29.64    0.00000E+00     0.00
   65.00   355.00      -3.54 -999.99   -3.54    0.00000     0.00  LINEAR    1.98334E-01   -77.01    0.00000E+00     0.00
   70.00   355.00      -9.79 -999.99   -9.79    0.00000     0.00  LINEAR    9.65410E-02    37.25    0.00000E+00     0.00
   75.00   355.00      -6.21 -999.99   -6.21    0.00000     0.00  LINEAR    1.45760E-01     8.47    0.00000E+00     0.00
   80.00   355.00      -7.39 -999.99   -7.39    0.00000     0.00  LINEAR    1.27209E-01  -176.19    0.00000E+00     0.00
   85.00   355.00       0.43 -999.99    0.43    0.00000     0.00  LINEAR    3.13148E-01   166.48    0.00000E+00     0.00
   90.00   355.00      -7.57 -999.99   -7.57    0.00000     0.00  LINEAR    1.24632E-01  -177.20    0.00000E+00     0.00






 ***** DATA CARD NO. 16   EN   0     0     0     0  0.00000E+00  0.00000E+00  0.00000E+00  0.00000E+00  0.00000E+00  0.00000E+00

 RUN TIME =     0.188
