1



                                 *********************************************

                                    NUMERICAL ELECTROMAGNETICS CODE (NEC-2D)

                                 *********************************************




                                     - - - - COMMENTS - - - -


                                                                                                     
                                                                                                     




                                 - - - STRUCTURE SPECIFICATION - - -

                                     COORDINATES MUST BE INPUT IN
                                     METERS OR BE SCALED TO METERS
                                     BEFORE STRUCTURE INPUT IS ENDED


  WIRE                                                                               NO. OF    FIRST  LAST     TAG
  NO.        X1         Y1         Z1          X2         Y2         Z2      RADIUS   SEG.     SEG.   SEG.     NO.
     1   -7.50000   -5.00000   -5.00000    -7.50000   -5.00000    5.00000    0.00100     20        1    20     101
     2   -2.50000   -5.00000   -5.00000    -2.50000   -5.00000    5.00000    0.00100     20       21    40     102
     3    2.50000   -5.00000   -5.00000     2.50000   -5.00000    5.00000    0.00100     20       41    60     103
     4    7.50000   -5.00000   -5.00000     7.50000   -5.00000    5.00000    0.00100     20       61    80     104
     5   -7.50000    0.00000   -5.00000    -7.50000    0.00000    5.00000    0.00100     20       81   100     201
     6   -2.50000    0.00000   -5.00000    -2.50000    0.00000    5.00000    0.00100     20      101   120     202
     7    2.50000    0.00000   -5.00000     2.50000    0.00000    5.00000    0.00100     20      121   140     203
     8    7.50000    0.00000   -5.00000     7.50000    0.00000    5.00000    0.00100     20      141   160     204
     9   -7.50000    5.00000   -5.00000    -7.50000    5.00000    5.00000    0.00100     20      161   180     301
    10   -2.50000    5.00000   -5.00000    -2.50000    5.00000    5.00000    0.00100     20      181   200     302
    11    2.50000    5.00000   -5.00000     2.50000    5.00000    5.00000    0.00100     20      201   220     303
    12    7.50000    5.00000   -5.00000     7.50000    5.00000    5.00000    0.00100     20      221   240     304

   TOTAL SEGMENTS USED=  240     NO. SEG. IN A SYMMETRIC CELL=  240     SYMMETRY FLAG=  0


         - MULTIPLE WIRE JUNCTIONS -
 JUNCTION    SEGMENTS  (- FOR END 1, + FOR END 2)
  NONE




                                 - - - - SEGMENTATION DATA - - - -

                                        COORDINATES IN METERS

                         I+ AND I- INDICATE THE SEGMENTS BEFORE AND AFTER I


  SEG.   COORDINATES OF SEG. CENTER     SEG.     ORIENTATION ANGLES    WIRE    CONNECTION DATA   TAG
  NO.       X         Y         Z       LENGTH     ALPHA     BETA      RADIUS    I-   I    I+    NO.
     1  -7.50000  -5.00000  -4.75000   0.50000   90.00000   0.00000   0.00100     0    1    2    101
     2  -7.50000  -5.00000  -4.25000   0.50000   90.00000   0.00000   0.00100     1    2    3    101
     3  -7.50000  -5.00000  -3.75000   0.50000   90.00000   0.00000   0.00100     2    3    4    101
     4  -7.50000  -5.00000  -3.25000   0.50000   90.00000   0.00000   0.00100     3    4    5    101
     5  -7.50000  -5.00000  -2.75000   0.50000   90.00000   0.00000   0.00100     4    5    6    101
     6  -7.50000  -5.00000  -2.25000   0.50000   90.00000   0.00000   0.00100     5    6    7    101
     7  -7.50000  -5.00000  -1.75000   0.50000   90.00000   0.00000   0.00100     6    7    8    101
     8  -7.50000  -5.00000  -1.25000   0.50000   90.00000   0.00000   0.00100     7    8    9    101
     9  -7.50000  -5.00000  -0.75000   0.50000   90.00000   0.00000   0.00100     8    9   10    101
    10  -7.50000  -5.00000  -0.25000   0.50000   90.00000   0.00000   0.00100     9   10   11    101
    11  -7.50000  -5.00000   0.25000   0.50000   90.00000   0.00000   0.00100    10   11   12    101
    12  -7.50000  -5.00000   0.75000   0.50000   90.00000   0.00000   0.00100    11   12   13    101
    13  -7.50000  -5.00000   1.25000   0.50000   90.00000   0.00000   0.00100    12   13   14    101
    14  -7.50000  -5.00000   1.75000   0.50000   90.00000   0.00000   0.00100    13   14   15    101
    15  -7.50000  -5.00000   2.25000   0.50000   90.00000   0.00000   0.00100    14   15   16    101
    16  -7.50000  -5.00000   2.75000   0.50000   90.00000   0.00000   0.00100    15   16   17    101
    17  -7.50000  -5.00000   3.25000   0.50000   90.00000   0.00000   0.00100    16   17   18    101
    18  -7.50000  -5.00000   3.75000   0.50000   90.00000   0.00000   0.00100    17   18   19    101
    19  -7.50000  -5.00000   4.25000   0.50000   90.00000   0.00000   0.00100    18   19   20    101
    20  -7.50000  -5.00000   4.75000   0.50000   90.00000   0.00000   0.00100    19   20    0    101
    21  -2.50000  -5.00000  -4.75000   0.50000   90.00000   0.00000   0.00100     0   21   22    102
    22  -2.50000  -5.00000  -4.25000   0.50000   90.00000   0.00000   0.00100    21   22   23    102
    23  -2.50000  -5.00000  -3.75000   0.50000   90.00000   0.00000   0.00100    22   23   24    102
    24  -2.50000  -5.00000  -3.25000   0.50000   90.00000   0.00000   0.00100    23   24   25    102
    25  -2.50000  -5.00000  -2.75000   0.50000   90.00000   0.00000   0.00100    24   25   26    102
    26  -2.50000  -5.00000  -2.25000   0.50000   90.00000   0.00000   0.00100    25   26   27    102
    27  -2.50000  -5.00000  -1.75000   0.50000   90.00000   0.00000   0.00100    26   27   28    102
    28  -2.50000  -5.00000  -1.25000   0.50000   90.00000   0.00000   0.00100    27   28   29    102
    29  -2.50000  -5.00000  -0.75000   0.50000   90.00000   0.00000   0.00100    28   29   30    102
    30  -2.50000  -5.00000  -0.25000   0.50000   90.00000   0.00000   0.00100    29   30   31    102
    31  -2.50000  -5.00000   0.25000   0.50000   90.00000   0.00000   0.00100    30   31   32    102
    32  -2.50000  -5.00000   0.75000   0.50000   90.00000   0.00000   0.00100    31   32   33    102
    33  -2.50000  -5.00000   1.25000   0.50000   90.00000   0.00000   0.00100    32   33   34    102
    34  -2.50000  -5.00000   1.75000   0.50000   90.00000   0.00000   0.00100    33   34   35    102
    35  -2.50000  -5.00000   2.25000   0.50000   90.00000   0.00000   0.00100    34   35   36    102
    36  -2.50000  -5.00000   2.75000   0.50000   90.00000   0.00000   0.00100    35   36   37    102
    37  -2.50000  -5.00000   3.25000   0.50000   90.00000   0.00000   0.00100    36   37   38    102
    38  -2.50000  -5.00000   3.75000   0.50000   90.00000   0.00000   0.00100    37   38   39    102
    39  -2.50000  -5.00000   4.25000   0.50000   90.00000   0.00000   0.00100    38   39   40    102
    40  -2.50000  -5.00000   4.75000   0.50000   90.00000   0.00000   0.00100    39   40    0    102
    41   2.50000  -5.00000  -4.75000   0.50000   90.00000   0.00000   0.00100     0   41   42    103
    42   2.50000  -5.00000  -4.25000   0.50000   90.00000   0.00000   0.00100    41   42   43    103
    43   2.50000  -5.00000  -3.75000   0.50000   90.00000   0.00000   0.00100    42   43   44    103
    44   2.50000  -5.00000  -3.25000   0.50000   90.00000   0.00000   0.00100    43   44   45    103
    45   2.50000  -5.00000  -2.75000   0.50000   90.00000   0.00000   0.00100    44   45   46    103
    46   2.50000  -5.00000  -2.25000   0.50000   90.00000   0.00000   0.00100    45   46   47    103
    47   2.50000  -5.00000  -1.75000   0.50000   90.00000   0.00000   0.00100    46   47   48    103
    48   2.50000  -5.00000  -1.25000   0.50000   90.00000   0.00000   0.00100    47   48   49    103
    49   2.50000  -5.00000  -0.75000   0.50000   90.00000   0.00000   0.00100    48   49   50    103
    50   2.50000  -5.00000  -0.25000   0.50000   90.00000   0.00000   0.00100    49   50   51    103
    51   2.50000  -5.00000   0.25000   0.50000   90.00000   0.00000   0.00100    50   51   52    103
    52   2.50000  -5.00000   0.75000   0.50000   90.00000   0.00000   0.00100    51   52   53    103
    53   2.50000  -5.00000   1.25000   0.50000   90.00000   0.00000   0.00100    52   53   54    103
    54   2.50000  -5.00000   1.75000   0.50000   90.00000   0.00000   0.00100    53   54   55    103
    55   2.50000  -5.00000   2.25000   0.50000   90.00000   0.00000   0.00100    54   55   56    103
    56   2.50000  -5.00000   2.75000   0.50000   90.00000   0.00000   0.00100    55   56   57    103
    57   2.50000  -5.00000   3.25000   0.50000   90.00000   0.00000   0.00100    56   57   58    103
    58   2.50000  -5.00000   3.75000   0.50000   90.00000   0.00000   0.00100    57   58   59    103
    59   2.50000  -5.00000   4.25000   0.50000   90.00000   0.00000   0.00100    58   59   60    103
    60   2.50000  -5.00000   4.75000   0.50000   90.00000   0.00000   0.00100    59   60    0    103
    61   7.50000  -5.00000  -4.75000   0.50000   90.00000   0.00000   0.00100     0   61   62    104
    62   7.50000  -5.00000  -4.25000   0.50000   90.00000   0.00000   0.00100    61   62   63    104
    63   7.50000  -5.00000  -3.75000   0.50000   90.00000   0.00000   0.00100    62   63   64    104
    64   7.50000  -5.00000  -3.25000   0.50000   90.00000   0.00000   0.00100    63   64   65    104
    65   7.50000  -5.00000  -2.75000   0.50000   90.00000   0.00000   0.00100    64   65   66    104
    66   7.50000  -5.00000  -2.25000   0.50000   90.00000   0.00000   0.00100    65   66   67    104
    67   7.50000  -5.00000  -1.75000   0.50000   90.00000   0.00000   0.00100    66   67   68    104
    68   7.50000  -5.00000  -1.25000   0.50000   90.00000   0.00000   0.00100    67   68   69    104
    69   7.50000  -5.00000  -0.75000   0.50000   90.00000   0.00000   0.00100    68   69   70    104
    70   7.50000  -5.00000  -0.25000   0.50000   90.00000   0.00000   0.00100    69   70   71    104
    71   7.50000  -5.00000   0.25000   0.50000   90.00000   0.00000   0.00100    70   71   72    104
    72   7.50000  -5.00000   0.75000   0.50000   90.00000   0.00000   0.00100    71   72   73    104
    73   7.50000  -5.00000   1.25000   0.50000   90.00000   0.00000   0.00100    72   73   74    104
    74   7.50000  -5.00000   1.75000   0.50000   90.00000   0.00000   0.00100    73   74   75    104
    75   7.50000  -5.00000   2.25000   0.50000   90.00000   0.00000   0.00100    74   75   76    104
    76   7.50000  -5.00000   2.75000   0.50000   90.00000   0.00000   0.00100    75   76   77    104
    77   7.50000  -5.00000   3.25000   0.50000   90.00000   0.00000   0.00100    76   77   78    104
    78   7.50000  -5.00000   3.75000   0.50000   90.00000   0.00000   0.00100    77   78   79    104
    79   7.50000  -5.00000   4.25000   0.50000   90.00000   0.00000   0.00100    78   79   80    104
    80   7.50000  -5.00000   4.75000   0.50000   90.00000   0.00000   0.00100    79   80    0    104
    81  -7.50000   0.00000  -4.75000   0.50000   90.00000   0.00000   0.00100     0   81   82    201
    82  -7.50000   0.00000  -4.25000   0.50000   90.00000   0.00000   0.00100    81   82   83    201
    83  -7.50000   0.00000  -3.75000   0.50000   90.00000   0.00000   0.00100    82   83   84    201
    84  -7.50000   0.00000  -3.25000   0.50000   90.00000   0.00000   0.00100    83   84   85    201
    85  -7.50000   0.00000  -2.75000   0.50000   90.00000   0.00000   0.00100    84   85   86    201
    86  -7.50000   0.00000  -2.25000   0.50000   90.00000   0.00000   0.00100    85   86   87    201
    87  -7.50000   0.00000  -1.75000   0.50000   90.00000   0.00000   0.00100    86   87   88    201
    88  -7.50000   0.00000  -1.25000   0.50000   90.00000   0.00000   0.00100    87   88   89    201
    89  -7.50000   0.00000  -0.75000   0.50000   90.00000   0.00000   0.00100    88   89   90    201
    90  -7.50000   0.00000  -0.25000   0.50000   90.00000   0.00000   0.00100    89   90   91    201
    91  -7.50000   0.00000   0.25000   0.50000   90.00000   0.00000   0.00100    90   91   92    201
    92  -7.50000   0.00000   0.75000   0.50000   90.00000   0.00000   0.00100    91   92   93    201
    93  -7.50000   0.00000   1.25000   0.50000   90.00000   0.00000   0.00100    92   93   94    201
    94  -7.50000   0.00000   1.75000   0.50000   90.00000   0.00000   0.00100    93   94   95    201
    95  -7.50000   0.00000   2.25000   0.50000   90.00000   0.00000   0.00100    94   95   96    201
    96  -7.50000   0.00000   2.75000   0.50000   90.00000   0.00000   0.00100    95   96   97    201
    97  -7.50000   0.00000   3.25000   0.50000   90.00000   0.00000   0.00100    96   97   98    201
    98  -7.50000   0.00000   3.75000   0.50000   90.00000   0.00000   0.00100    97   98   99    201
    99  -7.50000   0.00000   4.25000   0.50000   90.00000   0.00000   0.00100    98   99  100    201
   100  -7.50000   0.00000   4.75000   0.50000   90.00000   0.00000   0.00100    99  100    0    201
   101  -2.50000   0.00000  -4.75000   0.50000   90.00000   0.00000   0.00100     0  101  102    202
   102  -2.50000   0.00000  -4.25000   0.50000   90.00000   0.00000   0.00100   101  102  103    202
   103  -2.50000   0.00000  -3.75000   0.50000   90.00000   0.00000   0.00100   102  103  104    202
   104  -2.50000   0.00000  -3.25000   0.50000   90.00000   0.00000   0.00100   103  104  105    202
   105  -2.50000   0.00000  -2.75000   0.50000   90.00000   0.00000   0.00100   104  105  106    202
   106  -2.50000   0.00000  -2.25000   0.50000   90.00000   0.00000   0.00100   105  106  107    202
   107  -2.50000   0.00000  -1.75000   0.50000   90.00000   0.00000   0.00100   106  107  108    202
   108  -2.50000   0.00000  -1.25000   0.50000   90.00000   0.00000   0.00100   107  108  109    202
   109  -2.50000   0.00000  -0.75000   0.50000   90.00000   0.00000   0.00100   108  109  110    202
   110  -2.50000   0.00000  -0.25000   0.50000   90.00000   0.00000   0.00100   109  110  111    202
   111  -2.50000   0.00000   0.25000   0.50000   90.00000   0.00000   0.00100   110  111  112    202
   112  -2.50000   0.00000   0.75000   0.50000   90.00000   0.00000   0.00100   111  112  113    202
   113  -2.50000   0.00000   1.25000   0.50000   90.00000   0.00000   0.00100   112  113  114    202
   114  -2.50000   0.00000   1.75000   0.50000   90.00000   0.00000   0.00100   113  114  115    202
   115  -2.50000   0.00000   2.25000   0.50000   90.00000   0.00000   0.00100   114  115  116    202
   116  -2.50000   0.00000   2.75000   0.50000   90.00000   0.00000   0.00100   115  116  117    202
   117  -2.50000   0.00000   3.25000   0.50000   90.00000   0.00000   0.00100   116  117  118    202
   118  -2.50000   0.00000   3.75000   0.50000   90.00000   0.00000   0.00100   117  118  119    202
   119  -2.50000   0.00000   4.25000   0.50000   90.00000   0.00000   0.00100   118  119  120    202
   120  -2.50000   0.00000   4.75000   0.50000   90.00000   0.00000   0.00100   119  120    0    202
   121   2.50000   0.00000  -4.75000   0.50000   90.00000   0.00000   0.00100     0  121  122    203
   122   2.50000   0.00000  -4.25000   0.50000   90.00000   0.00000   0.00100   121  122  123    203
   123   2.50000   0.00000  -3.75000   0.50000   90.00000   0.00000   0.00100   122  123  124    203
   124   2.50000   0.00000  -3.25000   0.50000   90.00000   0.00000   0.00100   123  124  125    203
   125   2.50000   0.00000  -2.75000   0.50000   90.00000   0.00000   0.00100   124  125  126    203
   126   2.50000   0.00000  -2.25000   0.50000   90.00000   0.00000   0.00100   125  126  127    203
   127   2.50000   0.00000  -1.75000   0.50000   90.00000   0.00000   0.00100   126  127  128    203
   128   2.50000   0.00000  -1.25000   0.50000   90.00000   0.00000   0.00100   127  128  129    203
   129   2.50000   0.00000  -0.75000   0.50000   90.00000   0.00000   0.00100   128  129  130    203
   130   2.50000   0.00000  -0.25000   0.50000   90.00000   0.00000   0.00100   129  130  131    203
   131   2.50000   0.00000   0.25000   0.50000   90.00000   0.00000   0.00100   130  131  132    203
   132   2.50000   0.00000   0.75000   0.50000   90.00000   0.00000   0.00100   131  132  133    203
   133   2.50000   0.00000   1.25000   0.50000   90.00000   0.00000   0.00100   132  133  134    203
   134   2.50000   0.00000   1.75000   0.50000   90.00000   0.00000   0.00100   133  134  135    203
   135   2.50000   0.00000   2.25000   0.50000   90.00000   0.00000   0.00100   134  135  136    203
   136   2.50000   0.00000   2.75000   0.50000   90.00000   0.00000   0.00100   135  136  137    203
   137   2.50000   0.00000   3.25000   0.50000   90.00000   0.00000   0.00100   136  137  138    203
   138   2.50000   0.00000   3.75000   0.50000   90.00000   0.00000   0.00100   137  138  139    203
   139   2.50000   0.00000   4.25000   0.50000   90.00000   0.00000   0.00100   138  139  140    203
   140   2.50000   0.00000   4.75000   0.50000   90.00000   0.00000   0.00100   139  140    0    203
   141   7.50000   0.00000  -4.75000   0.50000   90.00000   0.00000   0.00100     0  141  142    204
   142   7.50000   0.00000  -4.25000   0.50000   90.00000   0.00000   0.00100   141  142  143    204
   143   7.50000   0.00000  -3.75000   0.50000   90.00000   0.00000   0.00100   142  143  144    204
   144   7.50000   0.00000  -3.25000   0.50000   90.00000   0.00000   0.00100   143  144  145    204
   145   7.50000   0.00000  -2.75000   0.50000   90.00000   0.00000   0.00100   144  145  146    204
   146   7.50000   0.00000  -2.25000   0.50000   90.00000   0.00000   0.00100   145  146  147    204
   147   7.50000   0.00000  -1.75000   0.50000   90.00000   0.00000   0.00100   146  147  148    204
   148   7.50000   0.00000  -1.25000   0.50000   90.00000   0.00000   0.00100   147  148  149    204
   149   7.50000   0.00000  -0.75000   0.50000   90.00000   0.00000   0.00100   148  149  150    204
   150   7.50000   0.00000  -0.25000   0.50000   90.00000   0.00000   0.00100   149  150  151    204
   151   7.50000   0.00000   0.25000   0.50000   90.00000   0.00000   0.00100   150  151  152    204
   152   7.50000   0.00000   0.75000   0.50000   90.00000   0.00000   0.00100   151  152  153    204
   153   7.50000   0.00000   1.25000   0.50000   90.00000   0.00000   0.00100   152  153  154    204
   154   7.50000   0.00000   1.75000   0.50000   90.00000   0.00000   0.00100   153  154  155    204
   155   7.50000   0.00000   2.25000   0.50000   90.00000   0.00000   0.00100   154  155  156    204
   156   7.50000   0.00000   2.75000   0.50000   90.00000   0.00000   0.00100   155  156  157    204
   157   7.50000   0.00000   3.25000   0.50000   90.00000   0.00000   0.00100   156  157  158    204
   158   7.50000   0.00000   3.75000   0.50000   90.00000   0.00000   0.00100   157  158  159    204
   159   7.50000   0.00000   4.25000   0.50000   90.00000   0.00000   0.00100   158  159  160    204
   160   7.50000   0.00000   4.75000   0.50000   90.00000   0.00000   0.00100   159  160    0    204
   161  -7.50000   5.00000  -4.75000   0.50000   90.00000   0.00000   0.00100     0  161  162    301
   162  -7.50000   5.00000  -4.25000   0.50000   90.00000   0.00000   0.00100   161  162  163    301
   163  -7.50000   5.00000  -3.75000   0.50000   90.00000   0.00000   0.00100   162  163  164    301
   164  -7.50000   5.00000  -3.25000   0.50000   90.00000   0.00000   0.00100   163  164  165    301
   165  -7.50000   5.00000  -2.75000   0.50000   90.00000   0.00000   0.00100   164  165  166    301
   166  -7.50000   5.00000  -2.25000   0.50000   90.00000   0.00000   0.00100   165  166  167    301
   167  -7.50000   5.00000  -1.75000   0.50000   90.00000   0.00000   0.00100   166  167  168    301
   168  -7.50000   5.00000  -1.25000   0.50000   90.00000   0.00000   0.00100   167  168  169    301
   169  -7.50000   5.00000  -0.75000   0.50000   90.00000   0.00000   0.00100   168  169  170    301
   170  -7.50000   5.00000  -0.25000   0.50000   90.00000   0.00000   0.00100   169  170  171    301
   171  -7.50000   5.00000   0.25000   0.50000   90.00000   0.00000   0.00100   170  171  172    301
   172  -7.50000   5.00000   0.75000   0.50000   90.00000   0.00000   0.00100   171  172  173    301
   173  -7.50000   5.00000   1.25000   0.50000   90.00000   0.00000   0.00100   172  173  174    301
   174  -7.50000   5.00000   1.75000   0.50000   90.00000   0.00000   0.00100   173  174  175    301
   175  -7.50000   5.00000   2.25000   0.50000   90.00000   0.00000   0.00100   174  175  176    301
   176  -7.50000   5.00000   2.75000   0.50000   90.00000   0.00000   0.00100   175  176  177    301
   177  -7.50000   5.00000   3.25000   0.50000   90.00000   0.00000   0.00100   176  177  178    301
   178  -7.50000   5.00000   3.75000   0.50000   90.00000   0.00000   0.00100   177  178  179    301
   179  -7.50000   5.00000   4.25000   0.50000   90.00000   0.00000   0.00100   178  179  180    301
   180  -7.50000   5.00000   4.75000   0.50000   90.00000   0.00000   0.00100   179  180    0    301
   181  -2.50000   5.00000  -4.75000   0.50000   90.00000   0.00000   0.00100     0  181  182    302
   182  -2.50000   5.00000  -4.25000   0.50000   90.00000   0.00000   0.00100   181  182  183    302
   183  -2.50000   5.00000  -3.75000   0.50000   90.00000   0.00000   0.00100   182  183  184    302
   184  -2.50000   5.00000  -3.25000   0.50000   90.00000   0.00000   0.00100   183  184  185    302
   185  -2.50000   5.00000  -2.75000   0.50000   90.00000   0.00000   0.00100   184  185  186    302
   186  -2.50000   5.00000  -2.25000   0.50000   90.00000   0.00000   0.00100   185  186  187    302
   187  -2.50000   5.00000  -1.75000   0.50000   90.00000   0.00000   0.00100   186  187  188    302
   188  -2.50000   5.00000  -1.25000   0.50000   90.00000   0.00000   0.00100   187  188  189    302
   189  -2.50000   5.00000  -0.75000   0.50000   90.00000   0.00000   0.00100   188  189  190    302
   190  -2.50000   5.00000  -0.25000   0.50000   90.00000   0.00000   0.00100   189  190  191    302
   191  -2.50000   5.00000   0.25000   0.50000   90.00000   0.00000   0.00100   190  191  192    302
   192  -2.50000   5.00000   0.75000   0.50000   90.00000   0.00000   0.00100   191  192  193    302
   193  -2.50000   5.00000   1.25000   0.50000   90.00000   0.00000   0.00100   192  193  194    302
   194  -2.50000   5.00000   1.75000   0.50000   90.00000   0.00000   0.00100   193  194  195    302
   195  -2.50000   5.00000   2.25000   0.50000   90.00000   0.00000   0.00100   194  195  196    302
   196  -2.50000   5.00000   2.75000   0.50000   90.00000   0.00000   0.00100   195  196  197    302
   197  -2.50000   5.00000   3.25000   0.50000   90.00000   0.00000   0.00100   196  197  198    302
   198  -2.50000   5.00000   3.75000   0.50000   90.00000   0.00000   0.00100   197  198  199    302
   199  -2.50000   5.00000   4.25000   0.50000   90.00000   0.00000   0.00100   198  199  200    302
   200  -2.50000   5.00000   4.75000   0.50000   90.00000   0.00000   0.00100   199  200    0    302
   201   2.50000   5.00000  -4.75000   0.50000   90.00000   0.00000   0.00100     0  201  202    303
   202   2.50000   5.00000  -4.25000   0.50000   90.00000   0.00000   0.00100   201  202  203    303
   203   2.50000   5.00000  -3.75000   0.50000   90.00000   0.00000   0.00100   202  203  204    303
   204   2.50000   5.00000  -3.25000   0.50000   90.00000   0.00000   0.00100   203  204  205    303
   205   2.50000   5.00000  -2.75000   0.50000   90.00000   0.00000   0.00100   204  205  206    303
   206   2.50000   5.00000  -2.25000   0.50000   90.00000   0.00000   0.00100   205  206  207    303
   207   2.50000   5.00000  -1.75000   0.50000   90.00000   0.00000   0.00100   206  207  208    303
   208   2.50000   5.00000  -1.25000   0.50000   90.00000   0.00000   0.00100   207  208  209    303
   209   2.50000   5.00000  -0.75000   0.50000   90.00000   0.00000   0.00100   208  209  210    303
   210   2.50000   5.00000  -0.25000   0.50000   90.00000   0.00000   0.00100   209  210  211    303
   211   2.50000   5.00000   0.25000   0.50000   90.00000   0.00000   0.00100   210  211  212    303
   212   2.50000   5.00000   0.75000   0.50000   90.00000   0.00000   0.00100   211  212  213    303
   213   2.50000   5.00000   1.25000   0.50000   90.00000   0.00000   0.00100   212  213  214    303
   214   2.50000   5.00000   1.75000   0.50000   90.00000   0.00000   0.00100   213  214  215    303
   215   2.50000   5.00000   2.25000   0.50000   90.00000   0.00000   0.00100   214  215  216    303
   216   2.50000   5.00000   2.75000   0.50000   90.00000   0.00000   0.00100   215  216  217    303
   217   2.50000   5.00000   3.25000   0.50000   90.00000   0.00000   0.00100   216  217  218    303
   218   2.50000   5.00000   3.75000   0.50000   90.00000   0.00000   0.00100   217  218  219    303
   219   2.50000   5.00000   4.25000   0.50000   90.00000   0.00000   0.00100   218  219  220    303
   220   2.50000   5.00000   4.75000   0.50000   90.00000   0.00000   0.00100   219  220    0    303
   221   7.50000   5.00000  -4.75000   0.50000   90.00000   0.00000   0.00100     0  221  222    304
   222   7.50000   5.00000  -4.25000   0.50000   90.00000   0.00000   0.00100   221  222  223    304
   223   7.50000   5.00000  -3.75000   0.50000   90.00000   0.00000   0.00100   222  223  224    304
   224   7.50000   5.00000  -3.25000   0.50000   90.00000   0.00000   0.00100   223  224  225    304
   225   7.50000   5.00000  -2.75000   0.50000   90.00000   0.00000   0.00100   224  225  226    304
   226   7.50000   5.00000  -2.25000   0.50000   90.00000   0.00000   0.00100   225  226  227    304
   227   7.50000   5.00000  -1.75000   0.50000   90.00000   0.00000   0.00100   226  227  228    304
   228   7.50000   5.00000  -1.25000   0.50000   90.00000   0.00000   0.00100   227  228  229    304
   229   7.50000   5.00000  -0.75000   0.50000   90.00000   0.00000   0.00100   228  229  230    304
   230   7.50000   5.00000  -0.25000   0.50000   90.00000   0.00000   0.00100   229  230  231    304
   231   7.50000   5.00000   0.25000   0.50000   90.00000   0.00000   0.00100   230  231  232    304
   232   7.50000   5.00000   0.75000   0.50000   90.00000   0.00000   0.00100   231  232  233    304
   233   7.50000   5.00000   1.25000   0.50000   90.00000   0.00000   0.00100   232  233  234    304
   234   7.50000   5.00000   1.75000   0.50000   90.00000   0.00000   0.00100   233  234  235    304
   235   7.50000   5.00000   2.25000   0.50000   90.00000   0.00000   0.00100   234  235  236    304
   236   7.50000   5.00000   2.75000   0.50000   90.00000   0.00000   0.00100   235  236  237    304
   237   7.50000   5.00000   3.25000   0.50000   90.00000   0.00000   0.00100   236  237  238    304
   238   7.50000   5.00000   3.75000   0.50000   90.00000   0.00000   0.00100   237  238  239    304
   239   7.50000   5.00000   4.25000   0.50000   90.00000   0.00000   0.00100   238  239  240    304
   240   7.50000   5.00000   4.75000   0.50000   90.00000   0.00000   0.00100   239  240    0    304






 ***** DATA CARD NO.  1   GN  -1     0     0     0  1.00000E+01  1.00000E-02  0.00000E+00  0.00000E+00  0.00000E+00  0.00000E+00
 ***** DATA CARD NO.  2   FR   0     0     0     0  1.50000E+02  0.00000E+00  0.00000E+00  0.00000E+00  0.00000E+00  0.00000E+00
 ***** DATA CARD NO.  3   EX   0   101    10     0  1.00000E-09  0.00000E+00  0.00000E+00  0.00000E+00  0.00000E+00  0.00000E+00
 ***** DATA CARD NO.  4   EX   0   102    10     0  1.00000E-09  0.00000E+00  0.00000E+00  0.00000E+00  0.00000E+00  0.00000E+00
 ***** DATA CARD NO.  5   EX   0   103    10     0  1.00000E-09  0.00000E+00  0.00000E+00  0.00000E+00  0.00000E+00  0.00000E+00
 ***** DATA CARD NO.  6   EX   0   104    10     0  1.00000E-09  0.00000E+00  0.00000E+00  0.00000E+00  0.00000E+00  0.00000E+00
 ***** DATA CARD NO.  7   EX   0   201    10     0  1.00000E-09  0.00000E+00  0.00000E+00  0.00000E+00  0.00000E+00  0.00000E+00
 ***** DATA CARD NO.  8   EX   0   202    10     0  1.00000E-09  0.00000E+00  0.00000E+00  0.00000E+00  0.00000E+00  0.00000E+00
 ***** DATA CARD NO.  9   EX   0   203    10     0  1.00000E-09  0.00000E+00  0.00000E+00  0.00000E+00  0.00000E+00  0.00000E+00
 ***** DATA CARD NO. 10   EX   0   204    10     0  1.00000E+00  0.00000E+00  0.00000E+00  0.00000E+00  0.00000E+00  0.00000E+00
 ***** DATA CARD NO. 11   EX   0   301    10     0  1.00000E-09  0.00000E+00  0.00000E+00  0.00000E+00  0.00000E+00  0.00000E+00
 ***** DATA CARD NO. 12   EX   0   302    10     0  1.00000E-09  0.00000E+00  0.00000E+00  0.00000E+00  0.00000E+00  0.00000E+00
 ***** DATA CARD NO. 13   EX   0   303    10     0  1.00000E-09  0.00000E+00  0.00000E+00  0.00000E+00  0.00000E+00  0.00000E+00
 ***** DATA CARD NO. 14   EX   0   304    10     0  1.00000E-09  0.00000E+00  0.00000E+00  0.00000E+00  0.00000E+00  0.00000E+00
 ***** DATA CARD NO. 15   RP   0    19    72  1010  0.00000E+00  0.00000E+00  5.00000E+00  5.00000E+00  0.00000E+00  0.00000E+00




                                 - - - - - - FREQUENCY - - - - - -

                                    FREQUENCY= 1.5000E+02 MHZ
                                    WAVELENGTH= 1.9987E+00 METERS




                    APPROXIMATE INTEGRATION EMPLOYED FOR SEGMENTS MORE THAN   1.000 WAVELENGTHS APART



                               - - - STRUCTURE IMPEDANCE LOADING - - -

                                   THIS STRUCTURE IS NOT LOADED



                                  - - - ANTENNA ENVIRONMENT - - -

                                            FREE SPACE



                                - - - MATRIX TIMING - - -

                        FILL=    0.031 SEC.,  FACTOR=    0.016 SEC.



                                          - - - ANTENNA INPUT PARAMETERS - - -

   TAG   SEG.    VOLTAGE (VOLTS)         CURRENT (AMPS)         IMPEDANCE (OHMS)        ADMITTANCE (MHOS)      POWER
   NO.   NO.    REAL        IMAG.       REAL        IMAG.       REAL        IMAG.       REAL        IMAG.     (WATTS)
   101    10 1.00000E-09 0.00000E+00-4.84970E-07-3.63330E-05-3.67312E-07 2.75183E-05-4.84970E+02-3.63330E+04-2.42485E-16
   102    30 1.00000E-09 0.00000E+00-5.59938E-06-2.68347E-05-7.45138E-06 3.57103E-05-5.59938E+03-2.68347E+04-2.79969E-15
   103    50 1.00000E-09 0.00000E+00 8.63513E-05 4.51274E-05 9.09629E-06-4.75374E-06 8.63513E+04 4.51274E+04 4.31756E-14
   104    70 1.00000E-09 0.00000E+00-2.42516E-05 2.77530E-05-1.78534E-05-2.04311E-05-2.42516E+04 2.77530E+04-1.21258E-14
   201    90 1.00000E-09 0.00000E+00 3.47623E-05 3.22778E-05 1.54480E-05-1.43439E-05 3.47623E+04 3.22778E+04 1.73812E-14
   202   110 1.00000E-09 0.00000E+00 2.94240E-05 7.33143E-06 3.19993E-05-7.97311E-06 2.94240E+04 7.33143E+03 1.47120E-14
   203   130 1.00000E-09 0.00000E+00-2.79229E-05 2.50994E-05-1.98081E-05-1.78052E-05-2.79229E+04 2.50994E+04-1.39614E-14
   204   150 1.00000E+00 0.00000E+00 2.96243E-03-1.37427E-03 2.77781E+02 1.28862E+02 2.96243E-03-1.37427E-03 1.48122E-03
   301   170 1.00000E-09 0.00000E+00-4.84970E-07-3.63330E-05-3.67312E-07 2.75183E-05-4.84970E+02-3.63330E+04-2.42485E-16
   302   190 1.00000E-09 0.00000E+00-5.59938E-06-2.68347E-05-7.45138E-06 3.57103E-05-5.59938E+03-2.68347E+04-2.79969E-15
   303   210 1.00000E-09 0.00000E+00 8.63513E-05 4.51274E-05 9.09629E-06-4.75374E-06 8.63513E+04 4.51274E+04 4.31756E-14
   304   230 1.00000E-09 0.00000E+00-2.42516E-05 2.77530E-05-1.78534E-05-2.04311E-05-2.42516E+04 2.77530E+04-1.21258E-14



                             - - - CURRENTS AND LOCATION - - -

                                 DISTANCES IN WAVELENGTHS


  SEG.  TAG    COORD. OF SEG. CENTER     SEG.            - - - CURRENT (AMPS) - - -
  NO.   NO.     X        Y        Z      LENGTH     REAL        IMAG.       MAG.        PHASE
     1  101  -3.7525  -2.5017  -2.3766  0.25017   1.4315E-06 -4.7287E-05  4.7309E-05  -88.266
     2  101  -3.7525  -2.5017  -2.1264  0.25017   1.1371E-06 -4.5661E-05  4.5675E-05  -88.573
     3  101  -3.7525  -2.5017  -1.8763  0.25017  -3.3312E-06  4.4687E-05  4.4811E-05   94.263
     4  101  -3.7525  -2.5017  -1.6261  0.25017  -7.7983E-06  4.9122E-05  4.9737E-05   99.021
     5  101  -3.7525  -2.5017  -1.3759  0.25017  -8.4007E-06 -3.2127E-05  3.3208E-05 -104.654
     6  101  -3.7525  -2.5017  -1.1258  0.25017  -9.2568E-06 -3.0951E-05  3.2306E-05 -106.651
     7  101  -3.7525  -2.5017  -0.8756  0.25017  -1.5125E-05  5.1684E-05  5.3852E-05  106.312
     8  101  -3.7525  -2.5017  -0.6254  0.25017  -1.9109E-05  4.9663E-05  5.3213E-05  111.046
     9  101  -3.7525  -2.5017  -0.3753  0.25017  -1.2046E-05 -3.4948E-05  3.6966E-05 -109.018
    10  101  -3.7525  -2.5017  -0.1251  0.25017  -4.8497E-07 -3.6333E-05  3.6336E-05  -90.765
    11  101  -3.7525  -2.5017   0.1251  0.25017   2.8234E-06  4.3226E-05  4.3318E-05   86.263
    12  101  -3.7525  -2.5017   0.3753  0.25017   1.6678E-06  3.8720E-05  3.8756E-05   87.534
    13  101  -3.7525  -2.5017   0.6254  0.25017   7.6135E-06 -4.5892E-05  4.6519E-05  -80.580
    14  101  -3.7525  -2.5017   0.8756  0.25017   1.4236E-05 -4.4052E-05  4.6295E-05  -72.091
    15  101  -3.7525  -2.5017   1.1258  0.25017   7.0938E-06  4.0610E-05  4.1225E-05   80.091
    16  101  -3.7525  -2.5017   1.3759  0.25017  -5.5412E-06  4.1097E-05  4.1469E-05   97.679
    17  101  -3.7525  -2.5017   1.6261  0.25017  -3.1871E-06 -3.8457E-05  3.8589E-05  -94.738
    18  101  -3.7525  -2.5017   1.8763  0.25017   9.2566E-06 -3.0198E-05  3.1585E-05  -72.958
    19  101  -3.7525  -2.5017   2.1264  0.25017   9.3845E-06  5.8935E-05  5.9677E-05   80.952
    20  101  -3.7525  -2.5017   2.3766  0.25017   4.3856E-08  5.2224E-05  5.2224E-05   89.952
    21  102  -1.2508  -2.5017  -2.3766  0.25017  -4.9710E-06 -3.1618E-05  3.2006E-05  -98.935
    22  102  -1.2508  -2.5017  -2.1264  0.25017   1.6271E-06 -3.6656E-05  3.6692E-05  -87.458
    23  102  -1.2508  -2.5017  -1.8763  0.25017   1.4625E-05  1.2495E-05  1.9236E-05   40.509
    24  102  -1.2508  -2.5017  -1.6261  0.25017   1.0313E-05  1.6325E-05  1.9310E-05   57.717
    25  102  -1.2508  -2.5017  -1.3759  0.25017  -6.9903E-06 -2.7336E-05  2.8215E-05 -104.344
    26  102  -1.2508  -2.5017  -1.1258  0.25017  -1.6879E-05 -2.9498E-05  3.3986E-05 -119.778
    27  102  -1.2508  -2.5017  -0.8756  0.25017  -1.7912E-05  8.6360E-06  1.9885E-05  154.259
    28  102  -1.2508  -2.5017  -0.6254  0.25017  -2.0555E-05  3.0613E-06  2.0782E-05  171.529
    29  102  -1.2508  -2.5017  -0.3753  0.25017  -1.9706E-05 -3.7861E-05  4.2682E-05 -117.496
    30  102  -1.2508  -2.5017  -0.1251  0.25017  -5.5994E-06 -2.6835E-05  2.7413E-05 -101.786
    31  102  -1.2508  -2.5017   0.1251  0.25017   1.1260E-05  2.5536E-05  2.7908E-05   66.205
    32  102  -1.2508  -2.5017   0.3753  0.25017   1.5405E-05  2.6319E-05  3.0495E-05   59.659
    33  102  -1.2508  -2.5017   0.6254  0.25017   1.2213E-05 -1.9253E-05  2.2800E-05  -57.611
    34  102  -1.2508  -2.5017   0.8756  0.25017   1.1540E-05 -2.0354E-05  2.3397E-05  -60.449
    35  102  -1.2508  -2.5017   1.1258  0.25017   4.1159E-06  2.0140E-05  2.0556E-05   78.450
    36  102  -1.2508  -2.5017   1.3759  0.25017  -1.7102E-05  1.7564E-05  2.4515E-05  134.236
    37  102  -1.2508  -2.5017   1.6261  0.25017  -3.2269E-05 -1.8327E-05  3.7110E-05 -150.406
    38  102  -1.2508  -2.5017   1.8763  0.25017  -2.2224E-05 -1.2700E-06  2.2261E-05 -176.730
    39  102  -1.2508  -2.5017   2.1264  0.25017  -1.8680E-06  5.0529E-05  5.0563E-05   92.117
    40  102  -1.2508  -2.5017   2.3766  0.25017   3.4056E-06  3.6047E-05  3.6208E-05   84.603
    41  103   1.2508  -2.5017  -2.3766  0.25017   1.0432E-04  6.6551E-05  1.2374E-04   32.536
    42  103   1.2508  -2.5017  -2.1264  0.25017   1.1588E-04  6.7981E-05  1.3434E-04   30.399
    43  103   1.2508  -2.5017  -1.8763  0.25017  -8.2379E-05 -5.2195E-05  9.7523E-05 -147.642
    44  103   1.2508  -2.5017  -1.6261  0.25017  -1.1347E-04 -7.3828E-05  1.3537E-04 -146.950
    45  103   1.2508  -2.5017  -1.3759  0.25017   6.6279E-05  1.4266E-05  6.7797E-05   12.147
    46  103   1.2508  -2.5017  -1.1258  0.25017   9.4662E-05  2.0077E-05  9.6767E-05   11.975
    47  103   1.2508  -2.5017  -0.8756  0.25017  -8.2190E-05 -6.0498E-05  1.0206E-04 -143.644
    48  103   1.2508  -2.5017  -0.6254  0.25017  -1.1674E-04 -4.5825E-05  1.2541E-04 -158.568
    49  103   1.2508  -2.5017  -0.3753  0.25017   4.8892E-05  5.3805E-05  7.2701E-05   47.739
    50  103   1.2508  -2.5017  -0.1251  0.25017   8.6351E-05  4.5127E-05  9.7432E-05   27.592
    51  103   1.2508  -2.5017   0.1251  0.25017  -5.3720E-05 -6.5658E-05  8.4834E-05 -129.289
    52  103   1.2508  -2.5017   0.3753  0.25017  -6.0158E-05 -7.6474E-05  9.7300E-05 -128.190
    53  103   1.2508  -2.5017   0.6254  0.25017   8.9330E-05  2.3825E-05  9.2453E-05   14.933
    54  103   1.2508  -2.5017   0.8756  0.25017   7.5910E-05  4.4445E-05  8.7965E-05   30.349
    55  103   1.2508  -2.5017   1.1258  0.25017  -1.0280E-04 -2.9522E-05  1.0696E-04 -163.978
    56  103   1.2508  -2.5017   1.3759  0.25017  -1.0347E-04 -2.1394E-05  1.0566E-04 -168.318
    57  103   1.2508  -2.5017   1.6261  0.25017   7.8843E-05  6.9053E-05  1.0481E-04   41.213
    58  103   1.2508  -2.5017   1.8763  0.25017   8.3862E-05  5.7695E-05  1.0179E-04   34.527
    59  103   1.2508  -2.5017   2.1264  0.25017  -1.0246E-04 -5.0153E-05  1.1408E-04 -153.919
    60  103   1.2508  -2.5017   2.3766  0.25017  -1.0501E-04 -5.3859E-05  1.1802E-04 -152.847
    61  104   3.7525  -2.5017  -2.3766  0.25017  -3.6832E-05  2.9793E-05  4.7373E-05  141.030
    62  104   3.7525  -2.5017  -2.1264  0.25017   1.2008E-06  5.6055E-06  5.7327E-06   77.909
    63  104   3.7525  -2.5017  -1.8763  0.25017   9.0406E-05 -4.9761E-05  1.0320E-04  -28.829
    64  104   3.7525  -2.5017  -1.6261  0.25017   4.3366E-05 -1.4181E-05  4.5626E-05  -18.108
    65  104   3.7525  -2.5017  -1.3759  0.25017  -8.3429E-05  3.7636E-05  9.1525E-05  155.719
    66  104   3.7525  -2.5017  -1.1258  0.25017  -8.3115E-05 -1.8718E-05  8.5196E-05 -167.308
    67  104   3.7525  -2.5017  -0.8756  0.25017   2.5369E-05 -8.6863E-05  9.0492E-05  -73.719
    68  104   3.7525  -2.5017  -0.6254  0.25017   4.6191E-05 -1.8396E-05  4.9719E-05  -21.715
    69  104   3.7525  -2.5017  -0.3753  0.25017  -2.5873E-05  8.1579E-05  8.5583E-05  107.596
    70  104   3.7525  -2.5017  -0.1251  0.25017  -2.4252E-05  2.7753E-05  3.6856E-05  131.148
    71  104   3.7525  -2.5017   0.1251  0.25017   4.6634E-05 -9.5384E-05  1.0617E-04  -63.946
    72  104   3.7525  -2.5017   0.3753  0.25017   2.9796E-05 -7.9004E-05  8.4436E-05  -69.336
    73  104   3.7525  -2.5017   0.6254  0.25017  -5.2451E-05  3.3829E-05  6.2414E-05  147.179
    74  104   3.7525  -2.5017   0.8756  0.25017  -3.0643E-05  4.5770E-05  5.5080E-05  123.802
    75  104   3.7525  -2.5017   1.1258  0.25017   6.4998E-05 -2.7987E-05  7.0768E-05  -23.296
    76  104   3.7525  -2.5017   1.3759  0.25017   4.0660E-05 -1.9470E-05  4.5081E-05  -25.587
    77  104   3.7525  -2.5017   1.6261  0.25017  -8.2118E-05  5.7104E-05  1.0002E-04  145.186
    78  104   3.7525  -2.5017   1.8763  0.25017  -8.3092E-05  5.0183E-05  9.7070E-05  148.870
    79  104   3.7525  -2.5017   2.1264  0.25017   4.4536E-05 -2.5996E-05  5.1568E-05  -30.273
    80  104   3.7525  -2.5017   2.3766  0.25017   6.3890E-05 -3.0751E-05  7.0905E-05  -25.702
    81  201  -3.7525   0.0000  -2.3766  0.25017   4.2178E-05  3.8603E-05  5.7176E-05   42.466
    82  201  -3.7525   0.0000  -2.1264  0.25017   4.4406E-05  3.8734E-05  5.8926E-05   41.097
    83  201  -3.7525   0.0000  -1.8763  0.25017  -3.3282E-05 -3.3923E-05  4.7524E-05 -134.453
    84  201  -3.7525   0.0000  -1.6261  0.25017  -3.8764E-05 -4.0339E-05  5.5946E-05 -133.860
    85  201  -3.7525   0.0000  -1.3759  0.25017   3.0710E-05  2.2357E-05  3.7986E-05   36.054
    86  201  -3.7525   0.0000  -1.1258  0.25017   3.0637E-05  1.9235E-05  3.6174E-05   32.123
    87  201  -3.7525   0.0000  -0.8756  0.25017  -3.7297E-05 -5.2025E-05  6.4013E-05 -125.636
    88  201  -3.7525   0.0000  -0.6254  0.25017  -3.1176E-05 -5.3569E-05  6.1981E-05 -120.199
    89  201  -3.7525   0.0000  -0.3753  0.25017   4.1144E-05  2.0795E-05  4.6100E-05   26.813
    90  201  -3.7525   0.0000  -0.1251  0.25017   3.4762E-05  3.2278E-05  4.7437E-05   42.878
    91  201  -3.7525   0.0000   0.1251  0.25017  -4.0783E-05 -3.0092E-05  5.0683E-05 -143.578
    92  201  -3.7525   0.0000   0.3753  0.25017  -3.7862E-05 -3.0188E-05  4.8423E-05 -141.434
    93  201  -3.7525   0.0000   0.6254  0.25017   3.5703E-05  4.2660E-05  5.5629E-05   50.073
    94  201  -3.7525   0.0000   0.8756  0.25017   3.3843E-05  4.9672E-05  6.0106E-05   55.732
    95  201  -3.7525   0.0000   1.1258  0.25017  -3.5235E-05 -2.4016E-05  4.2641E-05 -145.722
    96  201  -3.7525   0.0000   1.3759  0.25017  -2.9303E-05 -3.9164E-05  4.8913E-05 -126.804
    97  201  -3.7525   0.0000   1.6261  0.25017   3.6837E-05  2.4624E-05  4.4309E-05   33.761
    98  201  -3.7525   0.0000   1.8763  0.25017   1.8953E-05  3.2302E-05  3.7452E-05   59.599
    99  201  -3.7525   0.0000   2.1264  0.25017  -6.1134E-05 -3.5422E-05  7.0655E-05 -149.911
   100  201  -3.7525   0.0000   2.3766  0.25017  -4.7650E-05 -3.9832E-05  6.2106E-05 -140.106
   101  202  -1.2508   0.0000  -2.3766  0.25017   4.1830E-05  6.7665E-06  4.2374E-05    9.189
   102  202  -1.2508   0.0000  -2.1264  0.25017   3.6041E-05  1.3873E-05  3.8619E-05   21.053
   103  202  -1.2508   0.0000  -1.8763  0.25017  -4.6394E-05  1.3292E-05  4.8260E-05  164.013
   104  202  -1.2508   0.0000  -1.6261  0.25017  -5.1067E-05  8.8385E-06  5.1826E-05  170.181
   105  202  -1.2508   0.0000  -1.3759  0.25017   2.3706E-05  4.4595E-06  2.4121E-05   10.654
   106  202  -1.2508   0.0000  -1.1258  0.25017   3.3800E-05  4.2694E-06  3.4069E-05    7.199
   107  202  -1.2508   0.0000  -0.8756  0.25017  -2.7768E-05  9.2661E-06  2.9273E-05  161.546
   108  202  -1.2508   0.0000  -0.6254  0.25017  -2.7852E-05  1.4680E-05  3.1484E-05  152.207
   109  202  -1.2508   0.0000  -0.3753  0.25017   3.4977E-05  1.4498E-05  3.7863E-05   22.515
   110  202  -1.2508   0.0000  -0.1251  0.25017   2.9424E-05  7.3314E-06  3.0324E-05   13.991
   111  202  -1.2508   0.0000   0.1251  0.25017  -4.1520E-05 -2.5097E-06  4.1596E-05 -176.541
   112  202  -1.2508   0.0000   0.3753  0.25017  -4.3410E-05 -7.4899E-06  4.4052E-05 -170.211
   113  202  -1.2508   0.0000   0.6254  0.25017   2.2940E-05 -2.6563E-06  2.3094E-05   -6.605
   114  202  -1.2508   0.0000   0.8756  0.25017   2.6163E-05  7.6628E-06  2.7263E-05   16.324
   115  202  -1.2508   0.0000   1.1258  0.25017  -2.9561E-05  1.2546E-05  3.2113E-05  157.004
   116  202  -1.2508   0.0000   1.3759  0.25017  -1.3681E-05  7.0342E-06  1.5383E-05  152.789
   117  202  -1.2508   0.0000   1.6261  0.25017   6.0719E-05 -3.0591E-06  6.0797E-05   -2.884
   118  202  -1.2508   0.0000   1.8763  0.25017   5.0316E-05 -1.0558E-05  5.1412E-05  -11.851
   119  202  -1.2508   0.0000   2.1264  0.25017  -3.5940E-05 -1.2679E-05  3.8111E-05 -160.568
   120  202  -1.2508   0.0000   2.3766  0.25017  -4.1610E-05 -6.6848E-06  4.2144E-05 -170.873
   121  203   1.2508   0.0000  -2.3766  0.25017  -3.9337E-05  2.3951E-05  4.6055E-05  148.664
   122  203   1.2508   0.0000  -2.1264  0.25017  -9.4056E-07  1.4404E-06  1.7203E-06  123.144
   123  203   1.2508   0.0000  -1.8763  0.25017   9.1766E-05 -4.3448E-05  1.0153E-04  -25.336
   124  203   1.2508   0.0000  -1.6261  0.25017   4.3023E-05 -1.0522E-05  4.4291E-05  -13.743
   125  203   1.2508   0.0000  -1.3759  0.25017  -8.8751E-05  2.9398E-05  9.3493E-05  161.673
   126  203   1.2508   0.0000  -1.1258  0.25017  -8.8313E-05 -2.6857E-05  9.2306E-05 -163.085
   127  203   1.2508   0.0000  -0.8756  0.25017   2.4080E-05 -8.5051E-05  8.8394E-05  -74.192
   128  203   1.2508   0.0000  -0.6254  0.25017   4.4425E-05 -1.6018E-05  4.7225E-05  -19.828
   129  203   1.2508   0.0000  -0.3753  0.25017  -3.1240E-05  7.6879E-05  8.2984E-05  112.114
   130  203   1.2508   0.0000  -0.1251  0.25017  -2.7923E-05  2.5099E-05  3.7546E-05  138.048
   131  203   1.2508   0.0000   0.1251  0.25017   4.8973E-05 -9.0475E-05  1.0288E-04  -61.574
   132  203   1.2508   0.0000   0.3753  0.25017   3.3526E-05 -7.7254E-05  8.4215E-05  -66.541
   133  203   1.2508   0.0000   0.6254  0.25017  -5.2231E-05  2.7398E-05  5.8981E-05  152.321
   134  203   1.2508   0.0000   0.8756  0.25017  -3.0840E-05  4.3683E-05  5.3473E-05  125.222
   135  203   1.2508   0.0000   1.1258  0.25017   6.7829E-05 -1.9783E-05  7.0655E-05  -16.260
   136  203   1.2508   0.0000   1.3759  0.25017   4.2549E-05 -1.4465E-05  4.4940E-05  -18.776
   137  203   1.2508   0.0000   1.6261  0.25017  -8.5080E-05  5.1567E-05  9.9488E-05  148.780
   138  203   1.2508   0.0000   1.8763  0.25017  -8.6915E-05  4.7699E-05  9.9143E-05  151.242
   139  203   1.2508   0.0000   2.1264  0.25017   4.4641E-05 -1.6952E-05  4.7751E-05  -20.794
   140  203   1.2508   0.0000   2.3766  0.25017   6.5249E-05 -2.3973E-05  6.9514E-05  -20.174
   141  204   3.7525   0.0000  -2.3766  0.25017   2.8044E-03 -1.8186E-03  3.3424E-03  -32.962
   142  204   3.7525   0.0000  -2.1264  0.25017   2.6721E-03 -1.2337E-03  2.9432E-03  -24.782
   143  204   3.7525   0.0000  -1.8763  0.25017  -2.6826E-03  2.0214E-03  3.3589E-03  143.001
   144  204   3.7525   0.0000  -1.6261  0.25017  -2.6543E-03  1.1189E-03  2.8805E-03  157.143
   145  204   3.7525   0.0000  -1.3759  0.25017   2.6356E-03 -2.0962E-03  3.3676E-03  -38.496
   146  204   3.7525   0.0000  -1.1258  0.25017   2.6684E-03 -1.0528E-03  2.8685E-03  -21.531
   147  204   3.7525   0.0000  -0.8756  0.25017  -2.6234E-03  2.1524E-03  3.3933E-03  140.632
   148  204   3.7525   0.0000  -0.6254  0.25017  -2.7197E-03  9.7115E-04  2.8879E-03  160.350
   149  204   3.7525   0.0000  -0.3753  0.25017   2.6451E-03 -2.2542E-03  3.4753E-03  -40.438
   150  204   3.7525   0.0000  -0.1251  0.25017   2.9624E-03 -1.3743E-03  3.2657E-03  -24.887
   151  204   3.7525   0.0000   0.1251  0.25017  -2.2789E-03 -1.1054E-04  2.2816E-03 -177.223
   152  204   3.7525   0.0000   0.3753  0.25017  -2.7071E-03  9.0222E-04  2.8535E-03  161.568
   153  204   3.7525   0.0000   0.6254  0.25017   2.3408E-03  2.4248E-05  2.3409E-03    0.593
   154  204   3.7525   0.0000   0.8756  0.25017   2.6778E-03 -8.8225E-04  2.8194E-03  -18.236
   155  204   3.7525   0.0000   1.1258  0.25017  -2.3633E-03  4.2323E-05  2.3636E-03  178.974
   156  204   3.7525   0.0000   1.3759  0.25017  -2.6777E-03  8.4872E-04  2.8090E-03  162.414
   157  204   3.7525   0.0000   1.6261  0.25017   2.3791E-03 -1.0462E-04  2.3814E-03   -2.518
   158  204   3.7525   0.0000   1.8763  0.25017   2.6822E-03 -7.8957E-04  2.7960E-03  -16.403
   159  204   3.7525   0.0000   2.1264  0.25017  -2.4432E-03  1.9460E-04  2.4510E-03  175.446
   160  204   3.7525   0.0000   2.3766  0.25017  -2.7209E-03  6.0931E-04  2.7883E-03  167.378
   161  301  -3.7525   2.5017  -2.3766  0.25017   1.4315E-06 -4.7287E-05  4.7309E-05  -88.266
   162  301  -3.7525   2.5017  -2.1264  0.25017   1.1371E-06 -4.5661E-05  4.5675E-05  -88.573
   163  301  -3.7525   2.5017  -1.8763  0.25017  -3.3312E-06  4.4687E-05  4.4811E-05   94.263
   164  301  -3.7525   2.5017  -1.6261  0.25017  -7.7983E-06  4.9122E-05  4.9737E-05   99.021
   165  301  -3.7525   2.5017  -1.3759  0.25017  -8.4007E-06 -3.2127E-05  3.3208E-05 -104.654
   166  301  -3.7525   2.5017  -1.1258  0.25017  -9.2568E-06 -3.0951E-05  3.2306E-05 -106.651
   167  301  -3.7525   2.5017  -0.8756  0.25017  -1.5125E-05  5.1684E-05  5.3852E-05  106.312
   168  301  -3.7525   2.5017  -0.6254  0.25017  -1.9109E-05  4.9663E-05  5.3213E-05  111.046
   169  301  -3.7525   2.5017  -0.3753  0.25017  -1.2046E-05 -3.4948E-05  3.6966E-05 -109.018
   170  301  -3.7525   2.5017  -0.1251  0.25017  -4.8497E-07 -3.6333E-05  3.6336E-05  -90.765
   171  301  -3.7525   2.5017   0.1251  0.25017   2.8234E-06  4.3226E-05  4.3318E-05   86.263
   172  301  -3.7525   2.5017   0.3753  0.25017   1.6678E-06  3.8720E-05  3.8756E-05   87.534
   173  301  -3.7525   2.5017   0.6254  0.25017   7.6135E-06 -4.5892E-05  4.6519E-05  -80.580
   174  301  -3.7525   2.5017   0.8756  0.25017   1.4236E-05 -4.4052E-05  4.6295E-05  -72.091
   175  301  -3.7525   2.5017   1.1258  0.25017   7.0938E-06  4.0610E-05  4.1225E-05   80.091
   176  301  -3.7525   2.5017   1.3759  0.25017  -5.5412E-06  4.1097E-05  4.1469E-05   97.679
   177  301  -3.7525   2.5017   1.6261  0.25017  -3.1871E-06 -3.8457E-05  3.8589E-05  -94.738
   178  301  -3.7525   2.5017   1.8763  0.25017   9.2566E-06 -3.0198E-05  3.1585E-05  -72.958
   179  301  -3.7525   2.5017   2.1264  0.25017   9.3845E-06  5.8935E-05  5.9677E-05   80.952
   180  301  -3.7525   2.5017   2.3766  0.25017   4.3856E-08  5.2224E-05  5.2224E-05   89.952
   181  302  -1.2508   2.5017  -2.3766  0.25017  -4.9710E-06 -3.1618E-05  3.2006E-05  -98.935
   182  302  -1.2508   2.5017  -2.1264  0.25017   1.6271E-06 -3.6656E-05  3.6692E-05  -87.458
   183  302  -1.2508   2.5017  -1.8763  0.25017   1.4625E-05  1.2495E-05  1.9236E-05   40.509
   184  302  -1.2508   2.5017  -1.6261  0.25017   1.0313E-05  1.6325E-05  1.9310E-05   57.717
   185  302  -1.2508   2.5017  -1.3759  0.25017  -6.9903E-06 -2.7336E-05  2.8215E-05 -104.344
   186  302  -1.2508   2.5017  -1.1258  0.25017  -1.6879E-05 -2.9498E-05  3.3986E-05 -119.778
   187  302  -1.2508   2.5017  -0.8756  0.25017  -1.7912E-05  8.6360E-06  1.9885E-05  154.259
   188  302  -1.2508   2.5017  -0.6254  0.25017  -2.0555E-05  3.0613E-06  2.0782E-05  171.529
   189  302  -1.2508   2.5017  -0.3753  0.25017  -1.9706E-05 -3.7861E-05  4.2682E-05 -117.496
   190  302  -1.2508   2.5017  -0.1251  0.25017  -5.5994E-06 -2.6835E-05  2.7413E-05 -101.786
   191  302  -1.2508   2.5017   0.1251  0.25017   1.1260E-05  2.5536E-05  2.7908E-05   66.205
   192  302  -1.2508   2.5017   0.3753  0.25017   1.5405E-05  2.6319E-05  3.0495E-05   59.659
   193  302  -1.2508   2.5017   0.6254  0.25017   1.2213E-05 -1.9253E-05  2.2800E-05  -57.611
   194  302  -1.2508   2.5017   0.8756  0.25017   1.1540E-05 -2.0354E-05  2.3397E-05  -60.449
   195  302  -1.2508   2.5017   1.1258  0.25017   4.1159E-06  2.0140E-05  2.0556E-05   78.450
   196  302  -1.2508   2.5017   1.3759  0.25017  -1.7102E-05  1.7564E-05  2.4515E-05  134.236
   197  302  -1.2508   2.5017   1.6261  0.25017  -3.2269E-05 -1.8327E-05  3.7110E-05 -150.406
   198  302  -1.2508   2.5017   1.8763  0.25017  -2.2224E-05 -1.2700E-06  2.2261E-05 -176.730
   199  302  -1.2508   2.5017   2.1264  0.25017  -1.8680E-06  5.0529E-05  5.0563E-05   92.117
   200  302  -1.2508   2.5017   2.3766  0.25017   3.4056E-06  3.6047E-05  3.6208E-05   84.603
   201  303   1.2508   2.5017  -2.3766  0.25017   1.0432E-04  6.6551E-05  1.2374E-04   32.536
   202  303   1.2508   2.5017  -2.1264  0.25017   1.1588E-04  6.7981E-05  1.3434E-04   30.399
   203  303   1.2508   2.5017  -1.8763  0.25017  -8.2379E-05 -5.2195E-05  9.7523E-05 -147.642
   204  303   1.2508   2.5017  -1.6261  0.25017  -1.1347E-04 -7.3828E-05  1.3537E-04 -146.950
   205  303   1.2508   2.5017  -1.3759  0.25017   6.6279E-05  1.4266E-05  6.7797E-05   12.147
   206  303   1.2508   2.5017  -1.1258  0.25017   9.4662E-05  2.0077E-05  9.6767E-05   11.975
   207  303   1.2508   2.5017  -0.8756  0.25017  -8.2190E-05 -6.0498E-05  1.0206E-04 -143.644
   208  303   1.2508   2.5017  -0.6254  0.25017  -1.1674E-04 -4.5825E-05  1.2541E-04 -158.568
   209  303   1.2508   2.5017  -0.3753  0.25017   4.8892E-05  5.3805E-05  7.2701E-05   47.739
   210  303   1.2508   2.5017  -0.1251  0.25017   8.6351E-05  4.5127E-05  9.7432E-05   27.592
   211  303   1.2508   2.5017   0.1251  0.25017  -5.3720E-05 -6.5658E-05  8.4834E-05 -129.289
   212  303   1.2508   2.5017   0.3753  0.25017  -6.0158E-05 -7.6474E-05  9.7300E-05 -128.190
   213  303   1.2508   2.5017   0.6254  0.25017   8.9330E-05  2.3825E-05  9.2453E-05   14.933
   214  303   1.2508   2.5017   0.8756  0.25017   7.5910E-05  4.4445E-05  8.7965E-05   30.349
   215  303   1.2508   2.5017   1.1258  0.25017  -1.0280E-04 -2.9522E-05  1.0696E-04 -163.978
   216  303   1.2508   2.5017   1.3759  0.25017  -1.0347E-04 -2.1394E-05  1.0566E-04 -168.318
   217  303   1.2508   2.5017   1.6261  0.25017   7.8843E-05  6.9053E-05  1.0481E-04   41.213
   218  303   1.2508   2.5017   1.8763  0.25017   8.3862E-05  5.7695E-05  1.0179E-04   34.527
   219  303   1.2508   2.5017   2.1264  0.25017  -1.0246E-04 -5.0153E-05  1.1408E-04 -153.919
   220  303   1.2508   2.5017   2.3766  0.25017  -1.0501E-04 -5.3859E-05  1.1802E-04 -152.847
   221  304   3.7525   2.5017  -2.3766  0.25017  -3.6832E-05  2.9793E-05  4.7373E-05  141.030
   222  304   3.7525   2.5017  -2.1264  0.25017   1.2008E-06  5.6055E-06  5.7327E-06   77.909
   223  304   3.7525   2.5017  -1.8763  0.25017   9.0406E-05 -4.9761E-05  1.0320E-04  -28.829
   224  304   3.7525   2.5017  -1.6261  0.25017   4.3366E-05 -1.4181E-05  4.5626E-05  -18.108
   225  304   3.7525   2.5017  -1.3759  0.25017  -8.3429E-05  3.7636E-05  9.1525E-05  155.719
   226  304   3.7525   2.5017  -1.1258  0.25017  -8.3115E-05 -1.8718E-05  8.5196E-05 -167.308
   227  304   3.7525   2.5017  -0.8756  0.25017   2.5369E-05 -8.6863E-05  9.0492E-05  -73.719
   228  304   3.7525   2.5017  -0.6254  0.25017   4.6191E-05 -1.8396E-05  4.9719E-05  -21.715
   229  304   3.7525   2.5017  -0.3753  0.25017  -2.5873E-05  8.1579E-05  8.5583E-05  107.596
   230  304   3.7525   2.5017  -0.1251  0.25017  -2.4252E-05  2.7753E-05  3.6856E-05  131.148
   231  304   3.7525   2.5017   0.1251  0.25017   4.6634E-05 -9.5384E-05  1.0617E-04  -63.946
   232  304   3.7525   2.5017   0.3753  0.25017   2.9796E-05 -7.9004E-05  8.4436E-05  -69.336
   233  304   3.7525   2.5017   0.6254  0.25017  -5.2451E-05  3.3829E-05  6.2414E-05  147.179
   234  304   3.7525   2.5017   0.8756  0.25017  -3.0643E-05  4.5770E-05  5.5080E-05  123.802
   235  304   3.7525   2.5017   1.1258  0.25017   6.4998E-05 -2.7987E-05  7.0768E-05  -23.296
   236  304   3.7525   2.5017   1.3759  0.25017   4.0660E-05 -1.9470E-05  4.5081E-05  -25.587
   237  304   3.7525   2.5017   1.6261  0.25017  -8.2118E-05  5.7104E-05  1.0002E-04  145.186
   238  304   3.7525   2.5017   1.8763  0.25017  -8.3092E-05  5.0183E-05  9.7070E-05  148.870
   239  304   3.7525   2.5017   2.1264  0.25017   4.4536E-05 -2.5996E-05  5.1568E-05  -30.273
   240  304   3.7525   2.5017   2.3766  0.25017   6.3890E-05 -3.0751E-05  7.0905E-05  -25.702



                                        - - - POWER BUDGET - - -

                                           INPUT POWER   = 1.4812E-03 WATTS
                                           RADIATED POWER= 1.4812E-03 WATTS
                                           STRUCTURE LOSS= 0.0000E+00 WATTS
                                           NETWORK LOSS  = 0.0000E+00 WATTS
                                           EFFICIENCY    = 100.00 PERCENT



                                                - - - RADIATION PATTERNS - - -

  - - ANGLES - -       - DIRECTIVE GAINS -       - - - POLARIZATION - - -    - - - E(THETA) - - -    - - - E(PHI) - - -
  THETA     PHI        VERT.   HOR.    TOTAL      AXIAL     TILT   SENSE     MAGNITUDE    PHASE      MAGNITUDE    PHASE 
 DEGREES  DEGREES       DB      DB      DB        RATIO     DEG.              VOLTS/M    DEGREES      VOLTS/M    DEGREES
    0.00     0.00    -999.99 -999.99 -999.99    0.00000     0.00            0.00000E+00     0.00    0.00000E+00     0.00
    5.00     0.00      -5.18 -999.99   -5.18    0.00000     0.00  LINEAR    1.64144E-01   100.26    0.00000E+00     0.00
   10.00     0.00       0.55 -999.99    0.55    0.00000     0.00  LINEAR    3.17521E-01  -148.63    0.00000E+00     0.00
   15.00     0.00       3.49 -999.99    3.49    0.00000     0.00  LINEAR    4.45208E-01   -30.79    0.00000E+00     0.00
   20.00     0.00       5.84 -999.99    5.84    0.00000     0.00  LINEAR    5.83852E-01    88.71    0.00000E+00     0.00
   25.00     0.00       7.19 -999.99    7.19    0.00000     0.00  LINEAR    6.81799E-01  -166.30    0.00000E+00     0.00
   30.00     0.00       6.04 -999.99    6.04    0.00000     0.00  LINEAR    5.97246E-01   -62.29    0.00000E+00     0.00
   35.00     0.00       1.00 -999.99    1.00    0.00000     0.00  LINEAR    3.34490E-01    35.68    0.00000E+00     0.00
   40.00     0.00     -21.92 -999.99  -21.92    0.00000     0.00  LINEAR    2.38961E-02   141.73    0.00000E+00     0.00
   45.00     0.00      -4.81 -999.99   -4.81    0.00000     0.00  LINEAR    1.71250E-01    41.24    0.00000E+00     0.00
   50.00     0.00      -7.37 -999.99   -7.37    0.00000     0.00  LINEAR    1.27620E-01   117.34    0.00000E+00     0.00
   55.00     0.00      -5.25 -999.99   -5.25    0.00000     0.00  LINEAR    1.62805E-01    19.89    0.00000E+00     0.00
   60.00     0.00       2.14 -999.99    2.14    0.00000     0.00  LINEAR    3.81331E-01    83.91    0.00000E+00     0.00
   65.00     0.00      -1.31 -999.99   -1.31    0.00000     0.00  LINEAR    2.56325E-01   141.52    0.00000E+00     0.00
   70.00     0.00      -8.94 -999.99   -8.94    0.00000     0.00  LINEAR    1.06475E-01   -41.05    0.00000E+00     0.00
   75.00     0.00      -6.08 -999.99   -6.08    0.00000     0.00  LINEAR    1.47950E-01    12.99    0.00000E+00     0.00
   80.00     0.00      -7.37 -999.99   -7.37    0.00000     0.00  LINEAR    1.27542E-01  -123.40    0.00000E+00     0.00
   85.00     0.00       0.22 -999.99    0.22    0.00000     0.00  LINEAR    3.05698E-01  -106.21    0.00000E+00     0.00
   90.00     0.00      -6.91 -999.99   -6.91    0.00000     0.00  LINEAR    1.34488E-01   -74.89    0.00000E+00     0.00
    0.00     5.00    -999.99 -999.99 -999.99    0.00000     0.00            0.00000E+00     0.00    0.00000E+00     0.00
    5.00     5.00      -5.19 -999.99   -5.19    0.00000     0.00  LINEAR    1.64045E-01    99.81    0.00000E+00     0.00
   10.00     5.00       0.58 -999.99    0.58    0.00000     0.00  LINEAR    3.18477E-01  -149.42    0.00000E+00     0.00
   15.00     5.00       3.55 -999.99    3.55    0.00000     0.00  LINEAR    4.48647E-01   -32.17    0.00000E+00     0.00
   20.00     5.00       5.85 -999.99    5.85    0.00000     0.00  LINEAR    5.84175E-01    86.11    0.00000E+00     0.00
   25.00     5.00       7.20 -999.99    7.20    0.00000     0.00  LINEAR    6.82597E-01  -168.74    0.00000E+00     0.00
   30.00     5.00       5.98 -999.99    5.98    0.00000     0.00  LINEAR    5.93311E-01   -65.15    0.00000E+00     0.00
   35.00     5.00       1.00 -999.99    1.00    0.00000     0.00  LINEAR    3.34247E-01    31.96    0.00000E+00     0.00
   40.00     5.00     -29.92 -999.99  -29.92    0.00000     0.00  LINEAR    9.50854E-03   131.54    0.00000E+00     0.00
   45.00     5.00      -3.89 -999.99   -3.89    0.00000     0.00  LINEAR    1.90423E-01    33.86    0.00000E+00     0.00
   50.00     5.00      -7.02 -999.99   -7.02    0.00000     0.00  LINEAR    1.32819E-01   111.87    0.00000E+00     0.00
   55.00     5.00      -5.09 -999.99   -5.09    0.00000     0.00  LINEAR    1.65781E-01    10.75    0.00000E+00     0.00
   60.00     5.00       1.80 -999.99    1.80    0.00000     0.00  LINEAR    3.66471E-01    73.66    0.00000E+00     0.00
   65.00     5.00      -1.88 -999.99   -1.88    0.00000     0.00  LINEAR    2.40060E-01   133.90    0.00000E+00     0.00
   70.00     5.00      -9.90 -999.99   -9.90    0.00000     0.00  LINEAR    9.53086E-02   -35.71    0.00000E+00     0.00
   75.00     5.00      -5.65 -999.99   -5.65    0.00000     0.00  LINEAR    1.55533E-01    14.35    0.00000E+00     0.00
   80.00     5.00      -7.76 -999.99   -7.76    0.00000     0.00  LINEAR    1.21944E-01  -125.70    0.00000E+00     0.00
   85.00     5.00       0.22 -999.99    0.22    0.00000     0.00  LINEAR    3.05786E-01  -109.78    0.00000E+00     0.00
   90.00     5.00      -7.70 -999.99   -7.70    0.00000     0.00  LINEAR    1.22863E-01   -79.70    0.00000E+00     0.00
    0.00    10.00    -999.99 -999.99 -999.99    0.00000     0.00            0.00000E+00     0.00    0.00000E+00     0.00
    5.00    10.00      -5.20 -999.99   -5.20    0.00000     0.00  LINEAR    1.63757E-01    98.47    0.00000E+00     0.00
   10.00    10.00       0.65 -999.99    0.65    0.00000     0.00  LINEAR    3.21197E-01  -151.77    0.00000E+00     0.00
   15.00    10.00       3.74 -999.99    3.74    0.00000     0.00  LINEAR    4.58169E-01   -36.27    0.00000E+00     0.00
   20.00    10.00       5.90 -999.99    5.90    0.00000     0.00  LINEAR    5.87740E-01    78.48    0.00000E+00     0.00
   25.00    10.00       7.21 -999.99    7.21    0.00000     0.00  LINEAR    6.83506E-01  -175.89    0.00000E+00     0.00
   30.00    10.00       5.84 -999.99    5.84    0.00000     0.00  LINEAR    5.84096E-01   -73.89    0.00000E+00     0.00
   35.00    10.00       0.98 -999.99    0.98    0.00000     0.00  LINEAR    3.33729E-01    21.32    0.00000E+00     0.00
   40.00    10.00     -21.90 -999.99  -21.90    0.00000     0.00  LINEAR    2.39564E-02   -37.97    0.00000E+00     0.00
   45.00    10.00      -1.98 -999.99   -1.98    0.00000     0.00  LINEAR    2.37221E-01    18.46    0.00000E+00     0.00
   50.00    10.00      -6.13 -999.99   -6.13    0.00000     0.00  LINEAR    1.47158E-01    96.99    0.00000E+00     0.00
   55.00    10.00      -4.81 -999.99   -4.81    0.00000     0.00  LINEAR    1.71270E-01    -8.00    0.00000E+00     0.00
   60.00    10.00       1.81 -999.99    1.81    0.00000     0.00  LINEAR    3.66945E-01    49.18    0.00000E+00     0.00
   65.00    10.00      -2.89 -999.99   -2.89    0.00000     0.00  LINEAR    2.13760E-01   111.43    0.00000E+00     0.00
   70.00    10.00     -11.63 -999.99  -11.63    0.00000     0.00  LINEAR    7.81170E-02   -32.74    0.00000E+00     0.00
   75.00    10.00      -5.46 -999.99   -5.46    0.00000     0.00  LINEAR    1.58922E-01     9.15    0.00000E+00     0.00
   80.00    10.00      -7.96 -999.99   -7.96    0.00000     0.00  LINEAR    1.19173E-01  -138.14    0.00000E+00     0.00
   85.00    10.00       0.35 -999.99    0.35    0.00000     0.00  LINEAR    3.10240E-01  -123.75    0.00000E+00     0.00
   90.00    10.00      -8.89 -999.99   -8.89    0.00000     0.00  LINEAR    1.07144E-01   -98.69    0.00000E+00     0.00
    0.00    15.00    -999.99 -999.99 -999.99    0.00000     0.00            0.00000E+00     0.00    0.00000E+00     0.00
    5.00    15.00      -5.22 -999.99   -5.22    0.00000     0.00  LINEAR    1.63301E-01    96.23    0.00000E+00     0.00
   10.00    15.00       0.76 -999.99    0.76    0.00000     0.00  LINEAR    3.25221E-01  -155.65    0.00000E+00     0.00
   15.00    15.00       3.99 -999.99    3.99    0.00000     0.00  LINEAR    4.71675E-01   -42.97    0.00000E+00     0.00
   20.00    15.00       6.09 -999.99    6.09    0.00000     0.00  LINEAR    6.00560E-01    66.48    0.00000E+00     0.00
   25.00    15.00       7.17 -999.99    7.17    0.00000     0.00  LINEAR    6.80391E-01   172.50    0.00000E+00     0.00
   30.00    15.00       5.75 -999.99    5.75    0.00000     0.00  LINEAR    5.77592E-01   -88.50    0.00000E+00     0.00
   35.00    15.00       0.96 -999.99    0.96    0.00000     0.00  LINEAR    3.32898E-01     4.94    0.00000E+00     0.00
   40.00    15.00     -14.98 -999.99  -14.98    0.00000     0.00  LINEAR    5.30938E-02   -53.15    0.00000E+00     0.00
   45.00    15.00      -0.74 -999.99   -0.74    0.00000     0.00  LINEAR    2.73690E-01     0.57    0.00000E+00     0.00
   50.00    15.00      -5.34 -999.99   -5.34    0.00000     0.00  LINEAR    1.61198E-01    76.40    0.00000E+00     0.00
   55.00    15.00      -5.27 -999.99   -5.27    0.00000     0.00  LINEAR    1.62436E-01   -28.27    0.00000E+00     0.00
   60.00    15.00       2.28 -999.99    2.28    0.00000     0.00  LINEAR    3.87525E-01    26.44    0.00000E+00     0.00
   65.00    15.00      -2.86 -999.99   -2.86    0.00000     0.00  LINEAR    2.14511E-01    84.69    0.00000E+00     0.00
   70.00    15.00     -12.13 -999.99  -12.13    0.00000     0.00  LINEAR    7.37691E-02   -65.02    0.00000E+00     0.00
   75.00    15.00      -6.31 -999.99   -6.31    0.00000     0.00  LINEAR    1.44041E-01   -16.64    0.00000E+00     0.00
   80.00    15.00      -7.40 -999.99   -7.40    0.00000     0.00  LINEAR    1.27156E-01  -165.02    0.00000E+00     0.00
   85.00    15.00       0.56 -999.99    0.56    0.00000     0.00  LINEAR    3.17759E-01  -150.12    0.00000E+00     0.00
   90.00    15.00      -8.14 -999.99   -8.14    0.00000     0.00  LINEAR    1.16765E-01  -127.60    0.00000E+00     0.00
    0.00    20.00    -999.99 -999.99 -999.99    0.00000     0.00            0.00000E+00     0.00    0.00000E+00     0.00
    5.00    20.00      -5.26 -999.99   -5.26    0.00000     0.00  LINEAR    1.62716E-01    93.10    0.00000E+00     0.00
   10.00    20.00       0.88 -999.99    0.88    0.00000     0.00  LINEAR    3.29778E-01  -161.01    0.00000E+00     0.00
   15.00    20.00       4.26 -999.99    4.26    0.00000     0.00  LINEAR    4.86606E-01   -52.20    0.00000E+00     0.00
   20.00    20.00       6.45 -999.99    6.45    0.00000     0.00  LINEAR    6.26417E-01    51.34    0.00000E+00     0.00
   25.00    20.00       7.04 -999.99    7.04    0.00000     0.00  LINEAR    6.70051E-01   156.36    0.00000E+00     0.00
   30.00    20.00       5.81 -999.99    5.81    0.00000     0.00  LINEAR    5.81803E-01  -107.95    0.00000E+00     0.00
   35.00    20.00       0.93 -999.99    0.93    0.00000     0.00  LINEAR    3.31859E-01   -16.14    0.00000E+00     0.00
   40.00    20.00     -13.87 -999.99  -13.87    0.00000     0.00  LINEAR    6.03515E-02   -69.66    0.00000E+00     0.00
   45.00    20.00      -0.96 -999.99   -0.96    0.00000     0.00  LINEAR    2.66876E-01   -22.19    0.00000E+00     0.00
   50.00    20.00      -5.55 -999.99   -5.55    0.00000     0.00  LINEAR    1.57323E-01    51.37    0.00000E+00     0.00
   55.00    20.00      -6.04 -999.99   -6.04    0.00000     0.00  LINEAR    1.48590E-01   -53.16    0.00000E+00     0.00
   60.00    20.00       1.93 -999.99    1.93    0.00000     0.00  LINEAR    3.72214E-01     5.10    0.00000E+00     0.00
   65.00    20.00      -2.40 -999.99   -2.40    0.00000     0.00  LINEAR    2.26164E-01    65.69    0.00000E+00     0.00
   70.00    20.00     -10.01 -999.99  -10.01    0.00000     0.00  LINEAR    9.40817E-02  -115.64    0.00000E+00     0.00
   75.00    20.00      -6.14 -999.99   -6.14    0.00000     0.00  LINEAR    1.47041E-01   -56.18    0.00000E+00     0.00
   80.00    20.00      -7.11 -999.99   -7.11    0.00000     0.00  LINEAR    1.31476E-01   152.59    0.00000E+00     0.00
   85.00    20.00       0.63 -999.99    0.63    0.00000     0.00  LINEAR    3.20550E-01   170.85    0.00000E+00     0.00
   90.00    20.00      -7.41 -999.99   -7.41    0.00000     0.00  LINEAR    1.26926E-01  -161.12    0.00000E+00     0.00
    0.00    25.00    -999.99 -999.99 -999.99    0.00000     0.00            0.00000E+00     0.00    0.00000E+00     0.00
    5.00    25.00      -5.29 -999.99   -5.29    0.00000     0.00  LINEAR    1.62062E-01    89.08    0.00000E+00     0.00
   10.00    25.00       0.99 -999.99    0.99    0.00000     0.00  LINEAR    3.33806E-01  -167.80    0.00000E+00     0.00
   15.00    25.00       4.51 -999.99    4.51    0.00000     0.00  LINEAR    5.01146E-01   -63.92    0.00000E+00     0.00
   20.00    25.00       6.91 -999.99    6.91    0.00000     0.00  LINEAR    6.60217E-01    34.38    0.00000E+00     0.00
   25.00    25.00       6.88 -999.99    6.88    0.00000     0.00  LINEAR    6.57850E-01   135.43    0.00000E+00     0.00
   30.00    25.00       5.96 -999.99    5.96    0.00000     0.00  LINEAR    5.92131E-01  -130.59    0.00000E+00     0.00
   35.00    25.00       0.94 -999.99    0.94    0.00000     0.00  LINEAR    3.32116E-01   -41.28    0.00000E+00     0.00
   40.00    25.00     -17.31 -999.99  -17.31    0.00000     0.00  LINEAR    4.06110E-02   -86.31    0.00000E+00     0.00
   45.00    25.00      -2.32 -999.99   -2.32    0.00000     0.00  LINEAR    2.28118E-01   -53.24    0.00000E+00     0.00
   50.00    25.00      -6.80 -999.99   -6.80    0.00000     0.00  LINEAR    1.36291E-01    18.89    0.00000E+00     0.00
   55.00    25.00      -6.34 -999.99   -6.34    0.00000     0.00  LINEAR    1.43642E-01   -83.39    0.00000E+00     0.00
   60.00    25.00       1.26 -999.99    1.26    0.00000     0.00  LINEAR    3.44616E-01   -27.02    0.00000E+00     0.00
   65.00    25.00      -3.11 -999.99   -3.11    0.00000     0.00  LINEAR    2.08206E-01    39.18    0.00000E+00     0.00
   70.00    25.00      -7.69 -999.99   -7.69    0.00000     0.00  LINEAR    1.22948E-01  -166.45    0.00000E+00     0.00
   75.00    25.00      -6.41 -999.99   -6.41    0.00000     0.00  LINEAR    1.42545E-01   -99.39    0.00000E+00     0.00
   80.00    25.00      -6.60 -999.99   -6.60    0.00000     0.00  LINEAR    1.39416E-01   104.14    0.00000E+00     0.00
   85.00    25.00       0.91 -999.99    0.91    0.00000     0.00  LINEAR    3.31081E-01   125.46    0.00000E+00     0.00
   90.00    25.00      -6.98 -999.99   -6.98    0.00000     0.00  LINEAR    1.33425E-01   152.28    0.00000E+00     0.00
    0.00    30.00    -999.99 -999.99 -999.99    0.00000     0.00            0.00000E+00     0.00    0.00000E+00     0.00
    5.00    30.00      -5.33 -999.99   -5.33    0.00000     0.00  LINEAR    1.61417E-01    84.19    0.00000E+00     0.00
   10.00    30.00       1.04 -999.99    1.04    0.00000     0.00  LINEAR    3.36083E-01  -176.05    0.00000E+00     0.00
   15.00    30.00       4.75 -999.99    4.75    0.00000     0.00  LINEAR    5.14951E-01   -78.00    0.00000E+00     0.00
   20.00    30.00       7.27 -999.99    7.27    0.00000     0.00  LINEAR    6.88081E-01    16.08    0.00000E+00     0.00
   25.00    30.00       6.88 -999.99    6.88    0.00000     0.00  LINEAR    6.57674E-01   110.26    0.00000E+00     0.00
   30.00    30.00       5.99 -999.99    5.99    0.00000     0.00  LINEAR    5.94027E-01  -156.20    0.00000E+00     0.00
   35.00    30.00       0.98 -999.99    0.98    0.00000     0.00  LINEAR    3.33605E-01   -70.23    0.00000E+00     0.00
   40.00    30.00     -33.31 -999.99  -33.31    0.00000     0.00  LINEAR    6.43952E-03   -91.95    0.00000E+00     0.00
   45.00    30.00      -3.95 -999.99   -3.95    0.00000     0.00  LINEAR    1.89071E-01   -93.71    0.00000E+00     0.00
   50.00    30.00      -7.80 -999.99   -7.80    0.00000     0.00  LINEAR    1.21439E-01   -21.77    0.00000E+00     0.00
   55.00    30.00      -7.28 -999.99   -7.28    0.00000     0.00  LINEAR    1.28858E-01  -128.91    0.00000E+00     0.00
   60.00    30.00       0.85 -999.99    0.85    0.00000     0.00  LINEAR    3.28652E-01   -73.96    0.00000E+00     0.00
   65.00    30.00      -3.74 -999.99   -3.74    0.00000     0.00  LINEAR    1.93684E-01   -19.52    0.00000E+00     0.00
   70.00    30.00      -7.52 -999.99   -7.52    0.00000     0.00  LINEAR    1.25337E-01   158.79    0.00000E+00     0.00
   75.00    30.00      -5.75 -999.99   -5.75    0.00000     0.00  LINEAR    1.53725E-01  -155.18    0.00000E+00     0.00
   80.00    30.00      -7.02 -999.99   -7.02    0.00000     0.00  LINEAR    1.32789E-01    57.20    0.00000E+00     0.00
   85.00    30.00       0.52 -999.99    0.52    0.00000     0.00  LINEAR    3.16308E-01    73.70    0.00000E+00     0.00
   90.00    30.00      -7.14 -999.99   -7.14    0.00000     0.00  LINEAR    1.31033E-01   102.47    0.00000E+00     0.00
    0.00    35.00    -999.99 -999.99 -999.99    0.00000     0.00            0.00000E+00     0.00    0.00000E+00     0.00
    5.00    35.00      -5.36 -999.99   -5.36    0.00000     0.00  LINEAR    1.60873E-01    78.46    0.00000E+00     0.00
   10.00    35.00       1.03 -999.99    1.03    0.00000     0.00  LINEAR    3.35514E-01   174.15    0.00000E+00     0.00
   15.00    35.00       4.97 -999.99    4.97    0.00000     0.00  LINEAR    5.28348E-01   -94.16    0.00000E+00     0.00
   20.00    35.00       7.38 -999.99    7.38    0.00000     0.00  LINEAR    6.97039E-01    -4.13    0.00000E+00     0.00
   25.00    35.00       7.07 -999.99    7.07    0.00000     0.00  LINEAR    6.72514E-01    82.75    0.00000E+00     0.00
   30.00    35.00       5.86 -999.99    5.86    0.00000     0.00  LINEAR    5.85088E-01   174.08    0.00000E+00     0.00
   35.00    35.00       0.97 -999.99    0.97    0.00000     0.00  LINEAR    3.33247E-01  -103.67    0.00000E+00     0.00
   40.00    35.00     -26.77 -999.99  -26.77    0.00000     0.00  LINEAR    1.36624E-02    50.95    0.00000E+00     0.00
   45.00    35.00      -4.28 -999.99   -4.28    0.00000     0.00  LINEAR    1.82062E-01  -143.05    0.00000E+00     0.00
   50.00    35.00      -7.64 -999.99   -7.64    0.00000     0.00  LINEAR    1.23701E-01   -70.13    0.00000E+00     0.00
   55.00    35.00      -6.37 -999.99   -6.37    0.00000     0.00  LINEAR    1.43181E-01   167.34    0.00000E+00     0.00
   60.00    35.00       1.07 -999.99    1.07    0.00000     0.00  LINEAR    3.37166E-01  -138.81    0.00000E+00     0.00
   65.00    35.00      -2.65 -999.99   -2.65    0.00000     0.00  LINEAR    2.19644E-01   -84.29    0.00000E+00     0.00
   70.00    35.00     -12.61 -999.99  -12.61    0.00000     0.00  LINEAR    6.97694E-02    84.99    0.00000E+00     0.00
   75.00    35.00      -6.80 -999.99   -6.80    0.00000     0.00  LINEAR    1.36160E-01   144.03    0.00000E+00     0.00
   80.00    35.00      -7.87 -999.99   -7.87    0.00000     0.00  LINEAR    1.20403E-01     9.60    0.00000E+00     0.00
   85.00    35.00       0.40 -999.99    0.40    0.00000     0.00  LINEAR    3.12076E-01    16.84    0.00000E+00     0.00
   90.00    35.00      -7.22 -999.99   -7.22    0.00000     0.00  LINEAR    1.29804E-01    42.68    0.00000E+00     0.00
    0.00    40.00    -999.99 -999.99 -999.99    0.00000     0.00            0.00000E+00     0.00    0.00000E+00     0.00
    5.00    40.00      -5.37 -999.99   -5.37    0.00000     0.00  LINEAR    1.60520E-01    71.95    0.00000E+00     0.00
   10.00    40.00       0.93 -999.99    0.93    0.00000     0.00  LINEAR    3.31576E-01   162.64    0.00000E+00     0.00
   15.00    40.00       5.16 -999.99    5.16    0.00000     0.00  LINEAR    5.40001E-01  -111.93    0.00000E+00     0.00
   20.00    40.00       7.25 -999.99    7.25    0.00000     0.00  LINEAR    6.86567E-01   -27.38    0.00000E+00     0.00
   25.00    40.00       7.20 -999.99    7.20    0.00000     0.00  LINEAR    6.82789E-01    53.86    0.00000E+00     0.00
   30.00    40.00       5.70 -999.99    5.70    0.00000     0.00  LINEAR    5.74422E-01   140.04    0.00000E+00     0.00
   35.00    40.00       0.91 -999.99    0.91    0.00000     0.00  LINEAR    3.30770E-01  -142.68    0.00000E+00     0.00
   40.00    40.00     -31.24 -999.99  -31.24    0.00000     0.00  LINEAR    8.16661E-03    -0.37    0.00000E+00     0.00
   45.00    40.00      -3.16 -999.99   -3.16    0.00000     0.00  LINEAR    2.07178E-01   171.49    0.00000E+00     0.00
   50.00    40.00      -5.82 -999.99   -5.82    0.00000     0.00  LINEAR    1.52437E-01  -123.01    0.00000E+00     0.00
   55.00    40.00      -5.60 -999.99   -5.60    0.00000     0.00  LINEAR    1.56321E-01   111.20    0.00000E+00     0.00
   60.00    40.00       2.54 -999.99    2.54    0.00000     0.00  LINEAR    3.99047E-01   156.30    0.00000E+00     0.00
   65.00    40.00      -2.74 -999.99   -2.74    0.00000     0.00  LINEAR    2.17393E-01  -159.86    0.00000E+00     0.00
   70.00    40.00      -6.69 -999.99   -6.69    0.00000     0.00  LINEAR    1.38033E-01    20.04    0.00000E+00     0.00
   75.00    40.00      -5.29 -999.99   -5.29    0.00000     0.00  LINEAR    1.62030E-01    60.93    0.00000E+00     0.00
   80.00    40.00      -9.75 -999.99   -9.75    0.00000     0.00  LINEAR    9.69849E-02   -72.16    0.00000E+00     0.00
   85.00    40.00      -0.93 -999.99   -0.93    0.00000     0.00  LINEAR    2.67882E-01   -59.39    0.00000E+00     0.00
   90.00    40.00      -8.19 -999.99   -8.19    0.00000     0.00  LINEAR    1.16025E-01   -25.74    0.00000E+00     0.00
    0.00    45.00    -999.99 -999.99 -999.99    0.00000     0.00            0.00000E+00     0.00    0.00000E+00     0.00
    5.00    45.00      -5.38 -999.99   -5.38    0.00000     0.00  LINEAR    1.60431E-01    64.73    0.00000E+00     0.00
   10.00    45.00       0.75 -999.99    0.75    0.00000     0.00  LINEAR    3.24846E-01   149.18    0.00000E+00     0.00
   15.00    45.00       5.25 -999.99    5.25    0.00000     0.00  LINEAR    5.45344E-01  -131.00    0.00000E+00     0.00
   20.00    45.00       7.04 -999.99    7.04    0.00000     0.00  LINEAR    6.70077E-01   -54.24    0.00000E+00     0.00
   25.00    45.00       7.07 -999.99    7.07    0.00000     0.00  LINEAR    6.72903E-01    22.23    0.00000E+00     0.00
   30.00    45.00       5.43 -999.99    5.43    0.00000     0.00  LINEAR    5.57064E-01   101.89    0.00000E+00     0.00
   35.00    45.00       0.77 -999.99    0.77    0.00000     0.00  LINEAR    3.25467E-01   172.74    0.00000E+00     0.00
   40.00    45.00     -30.39 -999.99  -30.39    0.00000     0.00  LINEAR    9.01114E-03   -84.29    0.00000E+00     0.00
   45.00    45.00      -3.37 -999.99   -3.37    0.00000     0.00  LINEAR    2.02105E-01   122.68    0.00000E+00     0.00
   50.00    45.00      -4.84 -999.99   -4.84    0.00000     0.00  LINEAR    1.70611E-01  -173.60    0.00000E+00     0.00
   55.00    45.00      -6.42 -999.99   -6.42    0.00000     0.00  LINEAR    1.42361E-01    47.02    0.00000E+00     0.00
   60.00    45.00       2.58 -999.99    2.58    0.00000     0.00  LINEAR    4.01280E-01    91.63    0.00000E+00     0.00
   65.00    45.00      -1.42 -999.99   -1.42    0.00000     0.00  LINEAR    2.53184E-01   127.66    0.00000E+00     0.00
   70.00    45.00      -8.74 -999.99   -8.74    0.00000     0.00  LINEAR    1.08998E-01   -25.18    0.00000E+00     0.00
   75.00    45.00      -5.39 -999.99   -5.39    0.00000     0.00  LINEAR    1.60170E-01    -3.59    0.00000E+00     0.00
   80.00    45.00      -6.26 -999.99   -6.26    0.00000     0.00  LINEAR    1.44945E-01  -150.18    0.00000E+00     0.00
   85.00    45.00       0.84 -999.99    0.84    0.00000     0.00  LINEAR    3.28356E-01  -139.12    0.00000E+00     0.00
   90.00    45.00      -6.82 -999.99   -6.82    0.00000     0.00  LINEAR    1.35932E-01  -111.10    0.00000E+00     0.00
    0.00    50.00    -999.99 -999.99 -999.99    0.00000     0.00            0.00000E+00     0.00    0.00000E+00     0.00
    5.00    50.00      -5.37 -999.99   -5.37    0.00000     0.00  LINEAR    1.60637E-01    56.90    0.00000E+00     0.00
   10.00    50.00       0.54 -999.99    0.54    0.00000     0.00  LINEAR    3.17304E-01   133.61    0.00000E+00     0.00
   15.00    50.00       5.14 -999.99    5.14    0.00000     0.00  LINEAR    5.38540E-01  -151.54    0.00000E+00     0.00
   20.00    50.00       6.92 -999.99    6.92    0.00000     0.00  LINEAR    6.60789E-01   -84.04    0.00000E+00     0.00
   25.00    50.00       6.84 -999.99    6.84    0.00000     0.00  LINEAR    6.54946E-01   -13.68    0.00000E+00     0.00
   30.00    50.00       5.07 -999.99    5.07    0.00000     0.00  LINEAR    5.34056E-01    57.84    0.00000E+00     0.00
   35.00    50.00       0.50 -999.99    0.50    0.00000     0.00  LINEAR    3.15746E-01   121.92    0.00000E+00     0.00
   40.00    50.00     -39.10 -999.99  -39.10    0.00000     0.00  LINEAR    3.30715E-03    -9.21    0.00000E+00     0.00
   45.00    50.00      -3.24 -999.99   -3.24    0.00000     0.00  LINEAR    2.05274E-01    56.50    0.00000E+00     0.00
   50.00    50.00      -6.04 -999.99   -6.04    0.00000     0.00  LINEAR    1.48590E-01   122.13    0.00000E+00     0.00
   55.00    50.00      -7.56 -999.99   -7.56    0.00000     0.00  LINEAR    1.24740E-01   -29.71    0.00000E+00     0.00
   60.00    50.00       1.92 -999.99    1.92    0.00000     0.00  LINEAR    3.71569E-01    18.63    0.00000E+00     0.00
[...]
   40.00   315.00     -30.39 -999.99  -30.39    0.00000     0.00  LINEAR    9.01114E-03   -84.29    0.00000E+00     0.00
   45.00   315.00      -3.37 -999.99   -3.37    0.00000     0.00  LINEAR    2.02105E-01   122.68    0.00000E+00     0.00
   50.00   315.00      -4.84 -999.99   -4.84    0.00000     0.00  LINEAR    1.70611E-01  -173.60    0.00000E+00     0.00
   55.00   315.00      -6.42 -999.99   -6.42    0.00000     0.00  LINEAR    1.42361E-01    47.02    0.00000E+00     0.00
   60.00   315.00       2.58 -999.99    2.58    0.00000     0.00  LINEAR    4.01280E-01    91.63    0.00000E+00     0.00
   65.00   315.00      -1.42 -999.99   -1.42    0.00000     0.00  LINEAR    2.53184E-01   127.66    0.00000E+00     0.00
   70.00   315.00      -8.74 -999.99   -8.74    0.00000     0.00  LINEAR    1.08998E-01   -25.18    0.00000E+00     0.00
   75.00   315.00      -5.39 -999.99   -5.39    0.00000     0.00  LINEAR    1.60170E-01    -3.59    0.00000E+00     0.00
   80.00   315.00      -6.26 -999.99   -6.26    0.00000     0.00  LINEAR    1.44945E-01  -150.18    0.00000E+00     0.00
   85.00   315.00       0.84 -999.99    0.84    0.00000     0.00  LINEAR    3.28356E-01  -139.12    0.00000E+00     0.00
   90.00   315.00      -6.82 -999.99   -6.82    0.00000     0.00  LINEAR    1.35932E-01  -111.10    0.00000E+00     0.00
    0.00   320.00    -999.99 -999.99 -999.99    0.00000     0.00            0.00000E+00     0.00    0.00000E+00     0.00
    5.00   320.00      -5.37 -999.99   -5.37    0.00000     0.00  LINEAR    1.60520E-01    71.95    0.00000E+00     0.00
   10.00   320.00       0.93 -999.99    0.93    0.00000     0.00  LINEAR    3.31576E-01   162.64    0.00000E+00     0.00
   15.00   320.00       5.16 -999.99    5.16    0.00000     0.00  LINEAR    5.40001E-01  -111.93    0.00000E+00     0.00
   20.00   320.00       7.25 -999.99    7.25    0.00000     0.00  LINEAR    6.86567E-01   -27.38    0.00000E+00     0.00
   25.00   320.00       7.20 -999.99    7.20    0.00000     0.00  LINEAR    6.82789E-01    53.86    0.00000E+00     0.00
   30.00   320.00       5.70 -999.99    5.70    0.00000     0.00  LINEAR    5.74422E-01   140.04    0.00000E+00     0.00
   35.00   320.00       0.91 -999.99    0.91    0.00000     0.00  LINEAR    3.30770E-01  -142.68    0.00000E+00     0.00
   40.00   320.00     -31.24 -999.99  -31.24    0.00000     0.00  LINEAR    8.16661E-03    -0.37    0.00000E+00     0.00
   45.00   320.00      -3.16 -999.99   -3.16    0.00000     0.00  LINEAR    2.07178E-01   171.49    0.00000E+00     0.00
   50.00   320.00      -5.82 -999.99   -5.82    0.00000     0.00  LINEAR    1.52437E-01  -123.01    0.00000E+00     0.00
   55.00   320.00      -5.60 -999.99   -5.60    0.00000     0.00  LINEAR    1.56321E-01   111.20    0.00000E+00     0.00
   60.00   320.00       2.54 -999.99    2.54    0.00000     0.00  LINEAR    3.99047E-01   156.30    0.00000E+00     0.00
   65.00   320.00      -2.74 -999.99   -2.74    0.00000     0.00  LINEAR    2.17393E-01  -159.86    0.00000E+00     0.00
   70.00   320.00      -6.69 -999.99   -6.69    0.00000     0.00  LINEAR    1.38033E-01    20.04    0.00000E+00     0.00
   75.00   320.00      -5.29 -999.99   -5.29    0.00000     0.00  LINEAR    1.62030E-01    60.93    0.00000E+00     0.00
   80.00   320.00      -9.75 -999.99   -9.75    0.00000     0.00  LINEAR    9.69849E-02   -72.16    0.00000E+00     0.00
   85.00   320.00      -0.93 -999.99   -0.93    0.00000     0.00  LINEAR    2.67882E-01   -59.39    0.00000E+00     0.00
   90.00   320.00      -8.19 -999.99   -8.19    0.00000     0.00  LINEAR    1.16025E-01   -25.74    0.00000E+00     0.00
    0.00   325.00    -999.99 -999.99 -999.99    0.00000     0.00            0.00000E+00     0.00    0.00000E+00     0.00
    5.00   325.00      -5.36 -999.99   -5.36    0.00000     0.00  LINEAR    1.60873E-01    78.46    0.00000E+00     0.00
   10.00   325.00       1.03 -999.99    1.03    0.00000     0.00  LINEAR    3.35514E-01   174.15    0.00000E+00     0.00
   15.00   325.00       4.97 -999.99    4.97    0.00000     0.00  LINEAR    5.28348E-01   -94.16    0.00000E+00     0.00
   20.00   325.00       7.38 -999.99    7.38    0.00000     0.00  LINEAR    6.97039E-01    -4.13    0.00000E+00     0.00
   25.00   325.00       7.07 -999.99    7.07    0.00000     0.00  LINEAR    6.72514E-01    82.75    0.00000E+00     0.00
   30.00   325.00       5.86 -999.99    5.86    0.00000     0.00  LINEAR    5.85088E-01   174.08    0.00000E+00     0.00
   35.00   325.00       0.97 -999.99    0.97    0.00000     0.00  LINEAR    3.33247E-01  -103.67    0.00000E+00     0.00
   40.00   325.00     -26.77 -999.99  -26.77    0.00000     0.00  LINEAR    1.36624E-02    50.95    0.00000E+00     0.00
   45.00   325.00      -4.28 -999.99   -4.28    0.00000     0.00  LINEAR    1.82062E-01  -143.05    0.00000E+00     0.00
   50.00   325.00      -7.64 -999.99   -7.64    0.00000     0.00  LINEAR    1.23701E-01   -70.13    0.00000E+00     0.00
   55.00   325.00      -6.37 -999.99   -6.37    0.00000     0.00  LINEAR    1.43181E-01   167.34    0.00000E+00     0.00
   60.00   325.00       1.07 -999.99    1.07    0.00000     0.00  LINEAR    3.37166E-01  -138.81    0.00000E+00     0.00
   65.00   325.00      -2.65 -999.99   -2.65    0.00000     0.00  LINEAR    2.19644E-01   -84.29    0.00000E+00     0.00
   70.00   325.00     -12.61 -999.99  -12.61    0.00000     0.00  LINEAR    6.97694E-02    84.99    0.00000E+00     0.00
   75.00   325.00      -6.80 -999.99   -6.80    0.00000     0.00  LINEAR    1.36160E-01   144.03    0.00000E+00     0.00
   80.00   325.00      -7.87 -999.99   -7.87    0.00000     0.00  LINEAR    1.20403E-01     9.60    0.00000E+00     0.00
   85.00   325.00       0.40 -999.99    0.40    0.00000     0.00  LINEAR    3.12076E-01    16.84    0.00000E+00     0.00
   90.00   325.00      -7.22 -999.99   -7.22    0.00000     0.00  LINEAR    1.29804E-01    42.68    0.00000E+00     0.00
    0.00   330.00    -999.99 -999.99 -999.99    0.00000     0.00            0.00000E+00     0.00    0.00000E+00     0.00
    5.00   330.00      -5.33 -999.99   -5.33    0.00000     0.00  LINEAR    1.61417E-01    84.19    0.00000E+00     0.00
   10.00   330.00       1.04 -999.99    1.04    0.00000     0.00  LINEAR    3.36083E-01  -176.05    0.00000E+00     0.00
   15.00   330.00       4.75 -999.99    4.75    0.00000     0.00  LINEAR    5.14951E-01   -78.00    0.00000E+00     0.00
   20.00   330.00       7.27 -999.99    7.27    0.00000     0.00  LINEAR    6.88081E-01    16.08    0.00000E+00     0.00
   25.00   330.00       6.88 -999.99    6.88    0.00000     0.00  LINEAR    6.57674E-01   110.26    0.00000E+00     0.00
   30.00   330.00       5.99 -999.99    5.99    0.00000     0.00  LINEAR    5.94027E-01  -156.20    0.00000E+00     0.00
   35.00   330.00       0.98 -999.99    0.98    0.00000     0.00  LINEAR    3.33605E-01   -70.23    0.00000E+00     0.00
   40.00   330.00     -33.31 -999.99  -33.31    0.00000     0.00  LINEAR    6.43952E-03   -91.95    0.00000E+00     0.00
   45.00   330.00      -3.95 -999.99   -3.95    0.00000     0.00  LINEAR    1.89071E-01   -93.71    0.00000E+00     0.00
   50.00   330.00      -7.80 -999.99   -7.80    0.00000     0.00  LINEAR    1.21439E-01   -21.77    0.00000E+00     0.00
   55.00   330.00      -7.28 -999.99   -7.28    0.00000     0.00  LINEAR    1.28858E-01  -128.91    0.00000E+00     0.00
   60.00   330.00       0.85 -999.99    0.85    0.00000     0.00  LINEAR    3.28652E-01   -73.96    0.00000E+00     0.00
   65.00   330.00      -3.74 -999.99   -3.74    0.00000     0.00  LINEAR    1.93684E-01   -19.52    0.00000E+00     0.00
   70.00   330.00      -7.52 -999.99   -7.52    0.00000     0.00  LINEAR    1.25337E-01   158.79    0.00000E+00     0.00
   75.00   330.00      -5.75 -999.99   -5.75    0.00000     0.00  LINEAR    1.53725E-01  -155.18    0.00000E+00     0.00
   80.00   330.00      -7.02 -999.99   -7.02    0.00000     0.00  LINEAR    1.32789E-01    57.20    0.00000E+00     0.00
   85.00   330.00       0.52 -999.99    0.52    0.00000     0.00  LINEAR    3.16308E-01    73.70    0.00000E+00     0.00
   90.00   330.00      -7.14 -999.99   -7.14    0.00000     0.00  LINEAR    1.31033E-01   102.47    0.00000E+00     0.00
    0.00   335.00    -999.99 -999.99 -999.99    0.00000     0.00            0.00000E+00     0.00    0.00000E+00     0.00
    5.00   335.00      -5.29 -999.99   -5.29    0.00000     0.00  LINEAR    1.62062E-01    89.08    0.00000E+00     0.00
   10.00   335.00       0.99 -999.99    0.99    0.00000     0.00  LINEAR    3.33806E-01  -167.80    0.00000E+00     0.00
   15.00   335.00       4.51 -999.99    4.51    0.00000     0.00  LINEAR    5.01146E-01   -63.92    0.00000E+00     0.00
   20.00   335.00       6.91 -999.99    6.91    0.00000     0.00  LINEAR    6.60217E-01    34.38    0.00000E+00     0.00
   25.00   335.00       6.88 -999.99    6.88    0.00000     0.00  LINEAR    6.57850E-01   135.43    0.00000E+00     0.00
   30.00   335.00       5.96 -999.99    5.96    0.00000     0.00  LINEAR    5.92131E-01  -130.59    0.00000E+00     0.00
   35.00   335.00       0.94 -999.99    0.94    0.00000     0.00  LINEAR    3.32116E-01   -41.28    0.00000E+00     0.00
   40.00   335.00     -17.31 -999.99  -17.31    0.00000     0.00  LINEAR    4.06110E-02   -86.31    0.00000E+00     0.00
   45.00   335.00      -2.32 -999.99   -2.32    0.00000     0.00  LINEAR    2.28118E-01   -53.24    0.00000E+00     0.00
   50.00   335.00      -6.80 -999.99   -6.80    0.00000     0.00  LINEAR    1.36291E-01    18.89    0.00000E+00     0.00
   55.00   335.00      -6.34 -999.99   -6.34    0.00000     0.00  LINEAR    1.43642E-01   -83.39    0.00000E+00     0.00
   60.00   335.00       1.26 -999.99    1.26    0.00000     0.00  LINEAR    3.44616E-01   -27.02    0.00000E+00     0.00
   65.00   335.00      -3.11 -999.99   -3.11    0.00000     0.00  LINEAR    2.08206E-01    39.18    0.00000E+00     0.00
   70.00   335.00      -7.69 -999.99   -7.69    0.00000     0.00  LINEAR    1.22948E-01  -166.45    0.00000E+00     0.00
   75.00   335.00      -6.41 -999.99   -6.41    0.00000     0.00  LINEAR    1.42545E-01   -99.39    0.00000E+00     0.00
   80.00   335.00      -6.60 -999.99   -6.60    0.00000     0.00  LINEAR    1.39416E-01   104.14    0.00000E+00     0.00
   85.00   335.00       0.91 -999.99    0.91    0.00000     0.00  LINEAR    3.31081E-01   125.46    0.00000E+00     0.00
   90.00   335.00      -6.98 -999.99   -6.98    0.00000     0.00  LINEAR    1.33425E-01   152.28    0.00000E+00     0.00
    0.00   340.00    -999.99 -999.99 -999.99    0.00000     0.00            0.00000E+00     0.00    0.00000E+00     0.00
    5.00   340.00      -5.26 -999.99   -5.26    0.00000     0.00  LINEAR    1.62716E-01    93.10    0.00000E+00     0.00
   10.00   340.00       0.88 -999.99    0.88    0.00000     0.00  LINEAR    3.29778E-01  -161.01    0.00000E+00     0.00
   15.00   340.00       4.26 -999.99    4.26    0.00000     0.00  LINEAR    4.86606E-01   -52.20    0.00000E+00     0.00
   20.00   340.00       6.45 -999.99    6.45    0.00000     0.00  LINEAR    6.26417E-01    51.34    0.00000E+00     0.00
   25.00   340.00       7.04 -999.99    7.04    0.00000     0.00  LINEAR    6.70051E-01   156.36    0.00000E+00     0.00
   30.00   340.00       5.81 -999.99    5.81    0.00000     0.00  LINEAR    5.81803E-01  -107.95    0.00000E+00     0.00
   35.00   340.00       0.93 -999.99    0.93    0.00000     0.00  LINEAR    3.31859E-01   -16.14    0.00000E+00     0.00
   40.00   340.00     -13.87 -999.99  -13.87    0.00000     0.00  LINEAR    6.03515E-02   -69.66    0.00000E+00     0.00
   45.00   340.00      -0.96 -999.99   -0.96    0.00000     0.00  LINEAR    2.66876E-01   -22.19    0.00000E+00     0.00
   50.00   340.00      -5.55 -999.99   -5.55    0.00000     0.00  LINEAR    1.57323E-01    51.37    0.00000E+00     0.00
   55.00   340.00      -6.04 -999.99   -6.04    0.00000     0.00  LINEAR    1.48590E-01   -53.16    0.00000E+00     0.00
   60.00   340.00       1.93 -999.99    1.93    0.00000     0.00  LINEAR    3.72214E-01     5.10    0.00000E+00     0.00
   65.00   340.00      -2.40 -999.99   -2.40    0.00000     0.00  LINEAR    2.26164E-01    65.69    0.00000E+00     0.00
   70.00   340.00     -10.01 -999.99  -10.01    0.00000     0.00  LINEAR    9.40817E-02  -115.64    0.00000E+00     0.00
   75.00   340.00      -6.14 -999.99   -6.14    0.00000     0.00  LINEAR    1.47041E-01   -56.18    0.00000E+00     0.00
   80.00   340.00      -7.11 -999.99   -7.11    0.00000     0.00  LINEAR    1.31476E-01   152.59    0.00000E+00     0.00
   85.00   340.00       0.63 -999.99    0.63    0.00000     0.00  LINEAR    3.20550E-01   170.85    0.00000E+00     0.00
   90.00   340.00      -7.41 -999.99   -7.41    0.00000     0.00  LINEAR    1.26926E-01  -161.12    0.00000E+00     0.00
    0.00   345.00    -999.99 -999.99 -999.99    0.00000     0.00            0.00000E+00     0.00    0.00000E+00     0.00
    5.00   345.00      -5.22 -999.99   -5.22    0.00000     0.00  LINEAR    1.63301E-01    96.23    0.00000E+00     0.00
   10.00   345.00       0.76 -999.99    0.76    0.00000     0.00  LINEAR    3.25221E-01  -155.65    0.00000E+00     0.00
   15.00   345.00       3.99 -999.99    3.99    0.00000     0.00  LINEAR    4.71675E-01   -42.97    0.00000E+00     0.00
   20.00   345.00       6.09 -999.99    6.09    0.00000     0.00  LINEAR    6.00560E-01    66.48    0.00000E+00     0.00
   25.00   345.00       7.17 -999.99    7.17    0.00000     0.00  LINEAR    6.80391E-01   172.50    0.00000E+00     0.00
   30.00   345.00       5.75 -999.99    5.75    0.00000     0.00  LINEAR    5.77592E-01   -88.50    0.00000E+00     0.00
   35.00   345.00       0.96 -999.99    0.96    0.00000     0.00  LINEAR    3.32898E-01     4.94    0.00000E+00     0.00
   40.00   345.00     -14.98 -999.99  -14.98    0.00000     0.00  LINEAR    5.30938E-02   -53.15    0.00000E+00     0.00
   45.00   345.00      -0.74 -999.99   -0.74    0.00000     0.00  LINEAR    2.73690E-01     0.57    0.00000E+00     0.00
   50.00   345.00      -5.34 -999.99   -5.34    0.00000     0.00  LINEAR    1.61198E-01    76.40    0.00000E+00     0.00
   55.00   345.00      -5.27 -999.99   -5.27    0.00000     0.00  LINEAR    1.62436E-01   -28.27    0.00000E+00     0.00
   60.00   345.00       2.28 -999.99    2.28    0.00000     0.00  LINEAR    3.87525E-01    26.44    0.00000E+00     0.00
   65.00   345.00      -2.86 -999.99   -2.86    0.00000     0.00  LINEAR    2.14511E-01    84.69    0.00000E+00     0.00
   70.00   345.00     -12.13 -999.99  -12.13    0.00000     0.00  LINEAR    7.37691E-02   -65.02    0.00000E+00     0.00
   75.00   345.00      -6.31 -999.99   -6.31    0.00000     0.00  LINEAR    1.44041E-01   -16.64    0.00000E+00     0.00
   80.00   345.00      -7.40 -999.99   -7.40    0.00000     0.00  LINEAR    1.27156E-01  -165.02    0.00000E+00     0.00
   85.00   345.00       0.56 -999.99    0.56    0.00000     0.00  LINEAR    3.17759E-01  -150.12    0.00000E+00     0.00
   90.00   345.00      -8.14 -999.99   -8.14    0.00000     0.00  LINEAR    1.16765E-01  -127.60    0.00000E+00     0.00
    0.00   350.00    -999.99 -999.99 -999.99    0.00000     0.00            0.00000E+00     0.00    0.00000E+00     0.00
    5.00   350.00      -5.20 -999.99   -5.20    0.00000     0.00  LINEAR    1.63757E-01    98.47    0.00000E+00     0.00
   10.00   350.00       0.65 -999.99    0.65    0.00000     0.00  LINEAR    3.21197E-01  -151.77    0.00000E+00     0.00
   15.00   350.00       3.74 -999.99    3.74    0.00000     0.00  LINEAR    4.58169E-01   -36.27    0.00000E+00     0.00
   20.00   350.00       5.90 -999.99    5.90    0.00000     0.00  LINEAR    5.87740E-01    78.48    0.00000E+00     0.00
   25.00   350.00       7.21 -999.99    7.21    0.00000     0.00  LINEAR    6.83506E-01  -175.89    0.00000E+00     0.00
   30.00   350.00       5.84 -999.99    5.84    0.00000     0.00  LINEAR    5.84096E-01   -73.89    0.00000E+00     0.00
   35.00   350.00       0.98 -999.99    0.98    0.00000     0.00  LINEAR    3.33729E-01    21.32    0.00000E+00     0.00
   40.00   350.00     -21.90 -999.99  -21.90    0.00000     0.00  LINEAR    2.39564E-02   -37.97    0.00000E+00     0.00
   45.00   350.00      -1.98 -999.99   -1.98    0.00000     0.00  LINEAR    2.37221E-01    18.46    0.00000E+00     0.00
   50.00   350.00      -6.13 -999.99   -6.13    0.00000     0.00  LINEAR    1.47158E-01    96.99    0.00000E+00     0.00
   55.00   350.00      -4.81 -999.99   -4.81    0.00000     0.00  LINEAR    1.71270E-01    -8.00    0.00000E+00     0.00
   60.00   350.00       1.81 -999.99    1.81    0.00000     0.00  LINEAR    3.66945E-01    49.18    0.00000E+00     0.00
   65.00   350.00      -2.89 -999.99   -2.89    0.00000     0.00  LINEAR    2.13760E-01   111.43    0.00000E+00     0.00
   70.00   350.00     -11.63 -999.99  -11.63    0.00000     0.00  LINEAR    7.81170E-02   -32.74    0.00000E+00     0.00
   75.00   350.00      -5.46 -999.99   -5.46    0.00000     0.00  LINEAR    1.58922E-01     9.15    0.00000E+00     0.00
   80.00   350.00      -7.96 -999.99   -7.96    0.00000     0.00  LINEAR    1.19173E-01  -138.14    0.00000E+00     0.00
   85.00   350.00       0.35 -999.99    0.35    0.00000     0.00  LINEAR    3.10240E-01  -123.75    0.00000E+00     0.00
   90.00   350.00      -8.89 -999.99   -8.89    0.00000     0.00  LINEAR    1.07144E-01   -98.69    0.00000E+00     0.00
    0.00   355.00    -999.99 -999.99 -999.99    0.00000     0.00            0.00000E+00     0.00    0.00000E+00     0.00
    5.00   355.00      -5.19 -999.99   -5.19    0.00000     0.00  LINEAR    1.64045E-01    99.81    0.00000E+00     0.00
   10.00   355.00       0.58 -999.99    0.58    0.00000     0.00  LINEAR    3.18477E-01  -149.42    0.00000E+00     0.00
   15.00   355.00       3.55 -999.99    3.55    0.00000     0.00  LINEAR    4.48647E-01   -32.17    0.00000E+00     0.00
   20.00   355.00       5.85 -999.99    5.85    0.00000     0.00  LINEAR    5.84175E-01    86.11    0.00000E+00     0.00
   25.00   355.00       7.20 -999.99    7.20    0.00000     0.00  LINEAR    6.82597E-01  -168.74    0.00000E+00     0.00
   30.00   355.00       5.98 -999.99    5.98    0.00000     0.00  LINEAR    5.93311E-01   -65.15    0.00000E+00     0.00
   35.00   355.00       1.00 -999.99    1.00    0.00000     0.00  LINEAR    3.34247E-01    31.96    0.00000E+00     0.00
   40.00   355.00     -29.92 -999.99  -29.92    0.00000     0.00  LINEAR    9.50854E-03   131.54    0.00000E+00     0.00
   45.00   355.00      -3.89 -999.99   -3.89    0.00000     0.00  LINEAR    1.90423E-01    33.86    0.00000E+00     0.00
   50.00   355.00      -7.02 -999.99   -7.02    0.00000     0.00  LINEAR    1.32819E-01   111.87    0.00000E+00     0.00
   55.00   355.00      -5.09 -999.99   -5.09    0.00000     0.00  LINEAR    1.65781E-01    10.75    0.00000E+00     0.00
   60.00   355.00       1.80 -999.99    1.80    0.00000     0.00  LINEAR    3.66471E-01    73.66    0.00000E+00     0.00
   65.00   355.00      -1.88 -999.99   -1.88    0.00000     0.00  LINEAR    2.40060E-01   133.90    0.00000E+00     0.00
   70.00   355.00      -9.90 -999.99   -9.90    0.00000     0.00  LINEAR    9.53086E-02   -35.71    0.00000E+00     0.00
   75.00   355.00      -5.65 -999.99   -5.65    0.00000     0.00  LINEAR    1.55533E-01    14.35    0.00000E+00     0.00
   80.00   355.00      -7.76 -999.99   -7.76    0.00000     0.00  LINEAR    1.21944E-01  -125.70    0.00000E+00     0.00
   85.00   355.00       0.22 -999.99    0.22    0.00000     0.00  LINEAR    3.05786E-01  -109.78    0.00000E+00     0.00
   90.00   355.00      -7.70 -999.99   -7.70    0.00000     0.00  LINEAR    1.22863E-01   -79.70    0.00000E+00     0.00






 ***** DATA CARD NO. 16   EN   0     0     0     0  0.00000E+00  0.00000E+00  0.00000E+00  0.00000E+00  0.00000E+00  0.00000E+00

 RUN TIME =     0.203
