1



                                 *********************************************

                                    NUMERICAL ELECTROMAGNETICS CODE (NEC-2D)

                                 *********************************************




                                     - - - - COMMENTS - - - -


                                                                                                     
                                                                                                     




                                 - - - STRUCTURE SPECIFICATION - - -

                                     COORDINATES MUST BE INPUT IN
                                     METERS OR BE SCALED TO METERS
                                     BEFORE STRUCTURE INPUT IS ENDED


  WIRE                                                                               NO. OF    FIRST  LAST     TAG
  NO.        X1         Y1         Z1          X2         Y2         Z2      RADIUS   SEG.     SEG.   SEG.     NO.
     1  -20.00000  -20.00000    0.35000   -21.76000  -21.78000    2.70000    0.00100     25        1    25     101
     2  -21.76000  -21.78000    2.70000   -20.00000  -20.00000   15.20000    0.00100     50       26    75     102
     3  -20.00000  -20.00000    0.35000   -22.50000  -20.01000    2.70000    0.00100     25       76   100     103
     4  -22.50000  -20.01000    2.70000   -20.00000  -20.00000   15.20000    0.00100     50      101   150     104
     5  -20.00000  -20.00000    0.35000   -21.78000  -17.78000    2.70000    0.00100     25      151   175     105
     6  -21.78000  -17.78000    2.70000   -20.00000  -20.00000   15.20000    0.00100     50      176   225     106
     7  -20.00000  -20.00000    0.35000   -20.01000  -17.50000    2.70000    0.00100     25      226   250     107
     8  -20.01000  -17.50000    2.70000   -20.00000  -20.00000   15.20000    0.00100     50      251   300     108
     9  -20.00000  -20.00000    0.35000   -17.78000  -17.76000    2.70000    0.00100     25      301   325     109
    10  -17.78000  -17.76000    2.70000   -20.00000  -20.00000   15.20000    0.00100     50      326   375     110
    11  -20.00000  -20.00000    0.35000   -17.50000  -19.99000    2.70000    0.00100     25      376   400     111
    12  -17.50000  -19.99000    2.70000   -20.00000  -20.00000   15.20000    0.00100     50      401   450     112
    13  -20.00000  -20.00000    0.35000   -17.76000  -21.76000    2.70000    0.00100     25      451   475     113
    14  -17.76000  -21.76000    2.70000   -20.00000  -20.00000   15.20000    0.00100     50      476   525     114
    15  -20.00000  -20.00000    0.35000   -19.99000  -22.50000    2.70000    0.00100     25      526   550     115
    16  -19.99000  -22.50000    2.70000   -20.00000  -20.00000   15.20000    0.00100     50      551   600     116
    17  -20.00000  -20.00000    0.20000   -20.00000  -20.00000    0.35000    0.00100      3      601   603     117
    18  -20.00000  -20.00000    0.20000   -20.00000  -20.20000    0.20000    0.00100      4      604   607     118
    19  -20.00000  -20.20000    0.20000   -19.92000  -35.00000    0.20000    0.00100     50      608   657     119
    20  -20.00000  -20.00000    0.20000   -20.06000  -20.19000    0.20000    0.00100      4      658   661     120
    21  -20.06000  -20.19000    0.20000   -24.56000  -34.29000    0.20000    0.00100     50      662   711     121
    22  -20.00000  -20.00000    0.20000   -20.12000  -20.16000    0.20000    0.00100      4      712   715     122
    23  -20.12000  -20.16000    0.20000   -28.75000  -32.18000    0.20000    0.00100     50      716   765     123
    24  -20.00000  -20.00000    0.20000   -20.16000  -20.12000    0.20000    0.00100      4      766   769     124
    25  -20.16000  -20.12000    0.20000   -32.07000  -31.88000    0.20000    0.00100     50      770   819     125
    26  -20.00000  -20.00000    0.20000   -20.19000  -20.06000    0.20000    0.00100      4      820   823     126
    27  -20.19000  -20.06000    0.20000   -34.24000  -24.71000    0.20000    0.00100     50      824   873     127
    28  -20.00000  -20.00000    0.20000   -20.20000  -20.00000    0.20000    0.00100      4      874   877     128
    29  -20.20000  -20.00000    0.20000   -35.00000  -20.08000    0.20000    0.00100     50      878   927     129
    30    0.00000  -20.00000    0.35000     0.01000  -22.50000    2.70000    0.00100     25      928   952     130
    31    0.01000  -22.50000    2.70000     0.00000  -20.00000   15.20000    0.00100     50      953  1002     131
    32    0.00000  -20.00000    0.35000    -1.76000  -21.78000    2.70000    0.00100     25     1003  1027     132
    33   -1.76000  -21.78000    2.70000     0.00000  -20.00000   15.20000    0.00100     50     1028  1077     133
    34    0.00000  -20.00000    0.35000    -2.83000  -19.69000    2.70000    0.00100     25     1078  1102     134
    35   -2.83000  -19.69000    2.70000     0.00000  -20.00000   15.20000    0.00100     50     1103  1152     135
    36    0.00000  -20.00000    0.35000    -1.78000  -18.24000    2.70000    0.00100     25     1153  1177     136
    37   -1.78000  -18.24000    2.70000     0.00000  -20.00000   15.20000    0.00100     50     1178  1227     137
    38    0.00000  -20.00000    0.35000    -0.02000  -16.84000    2.70000    0.00100     25     1228  1252     138
    39   -0.02000  -16.84000    2.70000     0.00000  -20.00000   15.20000    0.00100     50     1253  1302     139
    40    0.00000  -20.00000    0.35000     1.76000  -18.22000    2.70000    0.00100     25     1303  1327     140
    41    1.76000  -18.22000    2.70000     0.00000  -20.00000   15.20000    0.00100     50     1328  1377     141
    42    0.00000  -20.00000    0.35000     2.83000  -19.66000    2.70000    0.00100     25     1378  1402     142
    43    2.83000  -19.66000    2.70000     0.00000  -20.00000   15.20000    0.00100     50     1403  1452     143
    44    0.00000  -20.00000    0.35000     1.78000  -21.76000    2.70000    0.00100     25     1453  1477     144
    45    1.78000  -21.76000    2.70000     0.00000  -20.00000   15.20000    0.00100     50     1478  1527     145
    46    0.00000  -20.00000    0.20000     0.00000  -20.00000    0.35000    0.00100      3     1528  1530     146
    47    0.00000  -20.00000    0.20000     0.14000  -20.14000    0.20000    0.00100      4     1531  1534     147
    48    0.14000  -20.14000    0.20000    10.66000  -30.55000    0.20000    0.00100     50     1535  1584     148
    49    0.00000  -20.00000    0.20000     0.09000  -20.18000    0.20000    0.00100      4     1585  1588     149
    50    0.09000  -20.18000    0.20000     6.88000  -33.33000    0.20000    0.00100     50     1589  1638     150
    51    0.00000  -20.00000    0.20000     0.03000  -20.20000    0.20000    0.00100      4     1639  1642     151
    52    0.03000  -20.20000    0.20000     2.43000  -34.80000    0.20000    0.00100     50     1643  1692     152
    53    0.00000  -20.00000    0.20000    -0.03000  -20.20000    0.20000    0.00100      4     1693  1696     153
    54   -0.03000  -20.20000    0.20000    -0.13000  -36.94000    0.20000    0.00100     50     1697  1746     154
    55    0.00000  -20.00000    0.20000    -0.09000  -20.18000    0.20000    0.00100      4     1747  1750     155
    56   -0.09000  -20.18000    0.20000    -6.74000  -33.40000    0.20000    0.00100     50     1751  1800     156
    57    0.00000  -20.00000    0.20000    -0.14000  -20.14000    0.20000    0.00100      4     1801  1804     157
    58   -0.14000  -20.14000    0.20000   -10.55000  -30.66000    0.20000    0.00100     50     1805  1854     158
    59   20.00000  -20.00000    0.35000    21.78000  -21.76000    2.70000    0.00100     25     1855  1879     159
    60   21.78000  -21.76000    2.70000    20.00000  -20.00000   15.20000    0.00100     50     1880  1929     160
    61   20.00000  -20.00000    0.35000    20.01000  -22.50000    2.70000    0.00100     25     1930  1954     161
    62   20.01000  -22.50000    2.70000    20.00000  -20.00000   15.20000    0.00100     50     1955  2004     162
    63   20.00000  -20.00000    0.35000    17.78000  -21.78000    2.70000    0.00100     25     2005  2029     163
    64   17.78000  -21.78000    2.70000    20.00000  -20.00000   15.20000    0.00100     50     2030  2079     164
    65   20.00000  -20.00000    0.35000    17.50000  -20.01000    2.70000    0.00100     25     2080  2104     165
    66   17.50000  -20.01000    2.70000    20.00000  -20.00000   15.20000    0.00100     50     2105  2154     166
    67   20.00000  -20.00000    0.35000    17.76000  -17.78000    2.70000    0.00100     25     2155  2179     167
    68   17.76000  -17.78000    2.70000    20.00000  -20.00000   15.20000    0.00100     50     2180  2229     168
    69   20.00000  -20.00000    0.35000    19.99000  -17.50000    2.70000    0.00100     25     2230  2254     169
    70   19.99000  -17.50000    2.70000    20.00000  -20.00000   15.20000    0.00100     50     2255  2304     170
    71   20.00000  -20.00000    0.35000    21.76000  -17.76000    2.70000    0.00100     25     2305  2329     171
    72   21.76000  -17.76000    2.70000    20.00000  -20.00000   15.20000    0.00100     50     2330  2379     172
    73   20.00000  -20.00000    0.35000    22.50000  -19.99000    2.70000    0.00100     25     2380  2404     173
    74   22.50000  -19.99000    2.70000    20.00000  -20.00000   15.20000    0.00100     50     2405  2454     174
    75   20.00000  -20.00000    0.20000    20.00000  -20.00000    0.35000    0.00100      3     2455  2457     175
    76   20.00000  -20.00000    0.20000    20.20000  -20.00000    0.20000    0.00100      4     2458  2461     176
    77   20.20000  -20.00000    0.20000    35.00000  -19.92000    0.20000    0.00100     50     2462  2511     177
    78   20.00000  -20.00000    0.20000    20.19000  -20.06000    0.20000    0.00100      4     2512  2515     178
    79   20.19000  -20.06000    0.20000    34.29000  -24.56000    0.20000    0.00100     50     2516  2565     179
    80   20.00000  -20.00000    0.20000    20.16000  -20.12000    0.20000    0.00100      4     2566  2569     180
    81   20.16000  -20.12000    0.20000    32.18000  -28.75000    0.20000    0.00100     50     2570  2619     181
    82   20.00000  -20.00000    0.20000    20.12000  -20.16000    0.20000    0.00100      4     2620  2623     182
    83   20.12000  -20.16000    0.20000    31.88000  -32.07000    0.20000    0.00100     50     2624  2673     183
    84   20.00000  -20.00000    0.20000    20.06000  -20.19000    0.20000    0.00100      4     2674  2677     184
    85   20.06000  -20.19000    0.20000    24.71000  -34.24000    0.20000    0.00100     50     2678  2727     185
    86   20.00000  -20.00000    0.20000    20.00000  -20.20000    0.20000    0.00100      4     2728  2731     186
    87   20.00000  -20.20000    0.20000    20.08000  -35.00000    0.20000    0.00100     50     2732  2781     187
    88  -20.00000    0.00000    0.35000   -22.50000   -0.01000    2.70000    0.00100     25     2782  2806     188
    89  -22.50000   -0.01000    2.70000   -20.00000    0.00000   15.20000    0.00100     50     2807  2856     189
    90  -20.00000    0.00000    0.35000   -21.78000    1.76000    2.70000    0.00100     25     2857  2881     190
    91  -21.78000    1.76000    2.70000   -20.00000    0.00000   15.20000    0.00100     50     2882  2931     191
    92  -20.00000    0.00000    0.35000   -19.69000    2.83000    2.70000    0.00100     25     2932  2956     192
    93  -19.69000    2.83000    2.70000   -20.00000    0.00000   15.20000    0.00100     50     2957  3006     193
    94  -20.00000    0.00000    0.35000   -18.24000    1.78000    2.70000    0.00100     25     3007  3031     194
    95  -18.24000    1.78000    2.70000   -20.00000    0.00000   15.20000    0.00100     50     3032  3081     195
    96  -20.00000    0.00000    0.35000   -16.84000    0.02000    2.70000    0.00100     25     3082  3106     196
    97  -16.84000    0.02000    2.70000   -20.00000    0.00000   15.20000    0.00100     50     3107  3156     197
    98  -20.00000    0.00000    0.35000   -18.22000   -1.76000    2.70000    0.00100     25     3157  3181     198
    99  -18.22000   -1.76000    2.70000   -20.00000    0.00000   15.20000    0.00100     50     3182  3231     199
   100  -20.00000    0.00000    0.35000   -19.66000   -2.83000    2.70000    0.00100     25     3232  3256     200
   101  -19.66000   -2.83000    2.70000   -20.00000    0.00000   15.20000    0.00100     50     3257  3306     201
   102  -20.00000    0.00000    0.35000   -21.76000   -1.78000    2.70000    0.00100     25     3307  3331     202
   103  -21.76000   -1.78000    2.70000   -20.00000    0.00000   15.20000    0.00100     50     3332  3381     203
   104  -20.00000    0.00000    0.20000   -20.00000    0.00000    0.35000    0.00100      3     3382  3384     204
   105  -20.00000    0.00000    0.20000   -20.14000   -0.14000    0.20000    0.00100      4     3385  3388     205
   106  -20.14000   -0.14000    0.20000   -30.55000  -10.66000    0.20000    0.00100     50     3389  3438     206
   107  -20.00000    0.00000    0.20000   -20.18000   -0.09000    0.20000    0.00100      4     3439  3442     207
   108  -20.18000   -0.09000    0.20000   -33.33000   -6.88000    0.20000    0.00100     50     3443  3492     208
   109  -20.00000    0.00000    0.20000   -20.20000   -0.03000    0.20000    0.00100      4     3493  3496     209
   110  -20.20000   -0.03000    0.20000   -34.80000   -2.43000    0.20000    0.00100     50     3497  3546     210
   111  -20.00000    0.00000    0.20000   -20.20000    0.03000    0.20000    0.00100      4     3547  3550     211
   112  -20.20000    0.03000    0.20000   -36.94000    0.13000    0.20000    0.00100     50     3551  3600     212
   113  -20.00000    0.00000    0.20000   -20.18000    0.09000    0.20000    0.00100      4     3601  3604     213
   114  -20.18000    0.09000    0.20000   -33.40000    6.74000    0.20000    0.00100     50     3605  3654     214
   115  -20.00000    0.00000    0.20000   -20.14000    0.14000    0.20000    0.00100      4     3655  3658     215
   116  -20.14000    0.14000    0.20000   -30.66000   10.55000    0.20000    0.00100     50     3659  3708     216
   117    0.00000    0.00000    0.35000     2.50000    0.01000    2.70000    0.00100     25     3709  3733     217
   118    2.50000    0.01000    2.70000     0.00000    0.00000   15.20000    0.00100     50     3734  3783     218
   119    0.00000    0.00000    0.35000     1.78000   -1.76000    2.70000    0.00100     25     3784  3808     219
   120    1.78000   -1.76000    2.70000     0.00000    0.00000   15.20000    0.00100     50     3809  3858     220
   121    0.00000    0.00000    0.35000    -0.31000   -2.83000    2.70000    0.00100     25     3859  3883     221
   122   -0.31000   -2.83000    2.70000     0.00000    0.00000   15.20000    0.00100     50     3884  3933     222
   123    0.00000    0.00000    0.35000    -1.76000   -1.78000    2.70000    0.00100     25     3934  3958     223
   124   -1.76000   -1.78000    2.70000     0.00000    0.00000   15.20000    0.00100     50     3959  4008     224
   125    0.00000    0.00000    0.35000    -3.16000   -0.02000    2.70000    0.00100     25     4009  4033     225
   126   -3.16000   -0.02000    2.70000     0.00000    0.00000   15.20000    0.00100     50     4034  4083     226
   127    0.00000    0.00000    0.35000    -1.78000    1.76000    2.70000    0.00100     25     4084  4108     227
   128   -1.78000    1.76000    2.70000     0.00000    0.00000   15.20000    0.00100     50     4109  4158     228
   129    0.00000    0.00000    0.35000    -0.34000    2.83000    2.70000    0.00100     25     4159  4183     229
   130   -0.34000    2.83000    2.70000     0.00000    0.00000   15.20000    0.00100     50     4184  4233     230
   131    0.00000    0.00000    0.35000     1.76000    1.78000    2.70000    0.00100     25     4234  4258     231
   132    1.76000    1.78000    2.70000     0.00000    0.00000   15.20000    0.00100     50     4259  4308     232
   133    0.00000    0.00000    0.20000     0.00000    0.00000    0.35000    0.00100      3     4309  4311     233
   134    0.00000    0.00000    0.20000     0.14000    0.14000    0.20000    0.00100      4     4312  4315     234
   135    0.14000    0.14000    0.20000    10.55000   10.66000    0.20000    0.00100     50     4316  4365     235
   136    0.00000    0.00000    0.20000     0.18000    0.09000    0.20000    0.00100      4     4366  4369     236
   137    0.18000    0.09000    0.20000    13.33000    6.88000    0.20000    0.00100     50     4370  4419     237
   138    0.00000    0.00000    0.20000     0.20000    0.03000    0.20000    0.00100      4     4420  4423     238
   139    0.20000    0.03000    0.20000    14.80000    2.43000    0.20000    0.00100     50     4424  4473     239
   140    0.00000    0.00000    0.20000     0.20000   -0.03000    0.20000    0.00100      4     4474  4477     240
   141    0.20000   -0.03000    0.20000    16.94000   -0.13000    0.20000    0.00100     50     4478  4527     241
   142    0.00000    0.00000    0.20000     0.18000   -0.09000    0.20000    0.00100      4     4528  4531     242
   143    0.18000   -0.09000    0.20000    13.40000   -6.74000    0.20000    0.00100     50     4532  4581     243
   144    0.00000    0.00000    0.20000     0.14000   -0.14000    0.20000    0.00100      4     4582  4585     244
   145    0.14000   -0.14000    0.20000    10.66000  -10.55000    0.20000    0.00100     50     4586  4635     245
   146   20.00000    0.00000    0.35000    22.50000    0.01000    2.70000    0.00100     25     4636  4660     246
   147   22.50000    0.01000    2.70000    20.00000    0.00000   15.20000    0.00100     50     4661  4710     247
   148   20.00000    0.00000    0.35000    21.78000   -1.76000    2.70000    0.00100     25     4711  4735     248
   149   21.78000   -1.76000    2.70000    20.00000    0.00000   15.20000    0.00100     50     4736  4785     249
   150   20.00000    0.00000    0.35000    19.69000   -2.83000    2.70000    0.00100     25     4786  4810     250
   151   19.69000   -2.83000    2.70000    20.00000    0.00000   15.20000    0.00100     50     4811  4860     251
   152   20.00000    0.00000    0.35000    18.24000   -1.78000    2.70000    0.00100     25     4861  4885     252
   153   18.24000   -1.78000    2.70000    20.00000    0.00000   15.20000    0.00100     50     4886  4935     253
   154   20.00000    0.00000    0.35000    16.84000   -0.02000    2.70000    0.00100     25     4936  4960     254
   155   16.84000   -0.02000    2.70000    20.00000    0.00000   15.20000    0.00100     50     4961  5010     255
   156   20.00000    0.00000    0.35000    18.22000    1.76000    2.70000    0.00100     25     5011  5035     256
   157   18.22000    1.76000    2.70000    20.00000    0.00000   15.20000    0.00100     50     5036  5085     257
   158   20.00000    0.00000    0.35000    19.66000    2.83000    2.70000    0.00100     25     5086  5110     258
   159   19.66000    2.83000    2.70000    20.00000    0.00000   15.20000    0.00100     50     5111  5160     259
   160   20.00000    0.00000    0.35000    21.76000    1.78000    2.70000    0.00100     25     5161  5185     260
   161   21.76000    1.78000    2.70000    20.00000    0.00000   15.20000    0.00100     50     5186  5235     261
   162   20.00000    0.00000    0.20000    20.00000    0.00000    0.35000    0.00100      3     5236  5238     262
   163   20.00000    0.00000    0.20000    20.14000    0.14000    0.20000    0.00100      4     5239  5242     263
   164   20.14000    0.14000    0.20000    30.55000   10.66000    0.20000    0.00100     50     5243  5292     264
   165   20.00000    0.00000    0.20000    20.18000    0.09000    0.20000    0.00100      4     5293  5296     265
   166   20.18000    0.09000    0.20000    33.33000    6.88000    0.20000    0.00100     50     5297  5346     266
   167   20.00000    0.00000    0.20000    20.20000    0.03000    0.20000    0.00100      4     5347  5350     267
   168   20.20000    0.03000    0.20000    34.80000    2.43000    0.20000    0.00100     50     5351  5400     268
   169   20.00000    0.00000    0.20000    20.20000   -0.03000    0.20000    0.00100      4     5401  5404     269
   170   20.20000   -0.03000    0.20000    36.94000   -0.13000    0.20000    0.00100     50     5405  5454     270
   171   20.00000    0.00000    0.20000    20.18000   -0.09000    0.20000    0.00100      4     5455  5458     271
   172   20.18000   -0.09000    0.20000    33.40000   -6.74000    0.20000    0.00100     50     5459  5508     272
   173   20.00000    0.00000    0.20000    20.14000   -0.14000    0.20000    0.00100      4     5509  5512     273
   174   20.14000   -0.14000    0.20000    30.66000  -10.55000    0.20000    0.00100     50     5513  5562     274
   175  -20.00000   20.00000    0.35000   -21.78000   21.76000    2.70000    0.00100     25     5563  5587     275
   176  -21.78000   21.76000    2.70000   -20.00000   20.00000   15.20000    0.00100     50     5588  5637     276
   177  -20.00000   20.00000    0.35000   -20.01000   22.50000    2.70000    0.00100     25     5638  5662     277
   178  -20.01000   22.50000    2.70000   -20.00000   20.00000   15.20000    0.00100     50     5663  5712     278
   179  -20.00000   20.00000    0.35000   -17.78000   21.78000    2.70000    0.00100     25     5713  5737     279
   180  -17.78000   21.78000    2.70000   -20.00000   20.00000   15.20000    0.00100     50     5738  5787     280
   181  -20.00000   20.00000    0.35000   -17.50000   20.01000    2.70000    0.00100     25     5788  5812     281
   182  -17.50000   20.01000    2.70000   -20.00000   20.00000   15.20000    0.00100     50     5813  5862     282
   183  -20.00000   20.00000    0.35000   -17.76000   17.78000    2.70000    0.00100     25     5863  5887     283
   184  -17.76000   17.78000    2.70000   -20.00000   20.00000   15.20000    0.00100     50     5888  5937     284
   185  -20.00000   20.00000    0.35000   -19.99000   17.50000    2.70000    0.00100     25     5938  5962     285
   186  -19.99000   17.50000    2.70000   -20.00000   20.00000   15.20000    0.00100     50     5963  6012     286
   187  -20.00000   20.00000    0.35000   -21.76000   17.76000    2.70000    0.00100     25     6013  6037     287
   188  -21.76000   17.76000    2.70000   -20.00000   20.00000   15.20000    0.00100     50     6038  6087     288
   189  -20.00000   20.00000    0.35000   -22.50000   19.99000    2.70000    0.00100     25     6088  6112     289
   190  -22.50000   19.99000    2.70000   -20.00000   20.00000   15.20000    0.00100     50     6113  6162     290
   191  -20.00000   20.00000    0.20000   -20.00000   20.00000    0.35000    0.00100      3     6163  6165     291
   192  -20.00000   20.00000    0.20000   -20.20000   20.00000    0.20000    0.00100      4     6166  6169     292
   193  -20.20000   20.00000    0.20000   -35.00000   19.92000    0.20000    0.00100     50     6170  6219     293
   194  -20.00000   20.00000    0.20000   -20.19000   20.06000    0.20000    0.00100      4     6220  6223     294
   195  -20.19000   20.06000    0.20000   -34.29000   24.56000    0.20000    0.00100     50     6224  6273     295
   196  -20.00000   20.00000    0.20000   -20.16000   20.12000    0.20000    0.00100      4     6274  6277     296
   197  -20.16000   20.12000    0.20000   -32.18000   28.75000    0.20000    0.00100     50     6278  6327     297
   198  -20.00000   20.00000    0.20000   -20.12000   20.16000    0.20000    0.00100      4     6328  6331     298
   199  -20.12000   20.16000    0.20000   -31.88000   32.07000    0.20000    0.00100     50     6332  6381     299
   200  -20.00000   20.00000    0.20000   -20.06000   20.19000    0.20000    0.00100      4     6382  6385     300
   201  -20.06000   20.19000    0.20000   -24.71000   34.24000    0.20000    0.00100     50     6386  6435     301
   202  -20.00000   20.00000    0.20000   -20.00000   20.20000    0.20000    0.00100      4     6436  6439     302
   203  -20.00000   20.20000    0.20000   -20.08000   35.00000    0.20000    0.00100     50     6440  6489     303
   204    0.00000   20.00000    0.35000    -0.01000   22.50000    2.70000    0.00100     25     6490  6514     304
   205   -0.01000   22.50000    2.70000     0.00000   20.00000   15.20000    0.00100     50     6515  6564     305
   206    0.00000   20.00000    0.35000     1.76000   21.78000    2.70000    0.00100     25     6565  6589     306
   207    1.76000   21.78000    2.70000     0.00000   20.00000   15.20000    0.00100     50     6590  6639     307
   208    0.00000   20.00000    0.35000     2.83000   19.69000    2.70000    0.00100     25     6640  6664     308
   209    2.83000   19.69000    2.70000     0.00000   20.00000   15.20000    0.00100     50     6665  6714     309
   210    0.00000   20.00000    0.35000     1.78000   18.24000    2.70000    0.00100     25     6715  6739     310
   211    1.78000   18.24000    2.70000     0.00000   20.00000   15.20000    0.00100     50     6740  6789     311
   212    0.00000   20.00000    0.35000     0.02000   16.84000    2.70000    0.00100     25     6790  6814     312
   213    0.02000   16.84000    2.70000     0.00000   20.00000   15.20000    0.00100     50     6815  6864     313
   214    0.00000   20.00000    0.35000    -1.76000   18.22000    2.70000    0.00100     25     6865  6889     314
   215   -1.76000   18.22000    2.70000     0.00000   20.00000   15.20000    0.00100     50     6890  6939     315
   216    0.00000   20.00000    0.35000    -2.83000   19.66000    2.70000    0.00100     25     6940  6964     316
   217   -2.83000   19.66000    2.70000     0.00000   20.00000   15.20000    0.00100     50     6965  7014     317
   218    0.00000   20.00000    0.35000    -1.78000   21.76000    2.70000    0.00100     25     7015  7039     318
   219   -1.78000   21.76000    2.70000     0.00000   20.00000   15.20000    0.00100     50     7040  7089     319
   220    0.00000   20.00000    0.20000     0.00000   20.00000    0.35000    0.00100      3     7090  7092     320
   221    0.00000   20.00000    0.20000    -0.14000   20.14000    0.20000    0.00100      4     7093  7096     321
   222   -0.14000   20.14000    0.20000   -10.66000   30.55000    0.20000    0.00100     50     7097  7146     322
   223    0.00000   20.00000    0.20000    -0.09000   20.18000    0.20000    0.00100      4     7147  7150     323
   224   -0.09000   20.18000    0.20000    -6.88000   33.33000    0.20000    0.00100     50     7151  7200     324
   225    0.00000   20.00000    0.20000    -0.03000   20.20000    0.20000    0.00100      4     7201  7204     325
   226   -0.03000   20.20000    0.20000    -2.43000   34.80000    0.20000    0.00100     50     7205  7254     326
   227    0.00000   20.00000    0.20000     0.03000   20.20000    0.20000    0.00100      4     7255  7258     327
   228    0.03000   20.20000    0.20000     0.13000   36.94000    0.20000    0.00100     50     7259  7308     328
   229    0.00000   20.00000    0.20000     0.09000   20.18000    0.20000    0.00100      4     7309  7312     329
   230    0.09000   20.18000    0.20000     6.74000   33.40000    0.20000    0.00100     50     7313  7362     330
   231    0.00000   20.00000    0.20000     0.14000   20.14000    0.20000    0.00100      4     7363  7366     331
   232    0.14000   20.14000    0.20000    10.55000   30.66000    0.20000    0.00100     50     7367  7416     332
   233   20.00000   20.00000    0.35000    21.76000   21.78000    2.70000    0.00100     25     7417  7441     333
   234   21.76000   21.78000    2.70000    20.00000   20.00000   15.20000    0.00100     50     7442  7491     334
   235   20.00000   20.00000    0.35000    22.50000   20.01000    2.70000    0.00100     25     7492  7516     335
   236   22.50000   20.01000    2.70000    20.00000   20.00000   15.20000    0.00100     50     7517  7566     336
   237   20.00000   20.00000    0.35000    21.78000   17.78000    2.70000    0.00100     25     7567  7591     337
   238   21.78000   17.78000    2.70000    20.00000   20.00000   15.20000    0.00100     50     7592  7641     338
   239   20.00000   20.00000    0.35000    20.01000   17.50000    2.70000    0.00100     25     7642  7666     339
   240   20.01000   17.50000    2.70000    20.00000   20.00000   15.20000    0.00100     50     7667  7716     340
   241   20.00000   20.00000    0.35000    17.78000   17.76000    2.70000    0.00100     25     7717  7741     341
   242   17.78000   17.76000    2.70000    20.00000   20.00000   15.20000    0.00100     50     7742  7791     342
   243   20.00000   20.00000    0.35000    17.50000   19.99000    2.70000    0.00100     25     7792  7816     343
   244   17.50000   19.99000    2.70000    20.00000   20.00000   15.20000    0.00100     50     7817  7866     344
   245   20.00000   20.00000    0.35000    17.76000   21.76000    2.70000    0.00100     25     7867  7891     345
   246   17.76000   21.76000    2.70000    20.00000   20.00000   15.20000    0.00100     50     7892  7941     346
   247   20.00000   20.00000    0.35000    19.99000   22.50000    2.70000    0.00100     25     7942  7966     347
   248   19.99000   22.50000    2.70000    20.00000   20.00000   15.20000    0.00100     50     7967  8016     348
   249   20.00000   20.00000    0.20000    20.00000   20.00000    0.35000    0.00100      3     8017  8019     349
   250   20.00000   20.00000    0.20000    20.00000   20.20000    0.20000    0.00100      4     8020  8023     350
   251   20.00000   20.20000    0.20000    19.92000   35.00000    0.20000    0.00100     50     8024  8073     351
   252   20.00000   20.00000    0.20000    20.06000   20.19000    0.20000    0.00100      4     8074  8077     352
   253   20.06000   20.19000    0.20000    24.56000   34.29000    0.20000    0.00100     50     8078  8127     353
   254   20.00000   20.00000    0.20000    20.12000   20.16000    0.20000    0.00100      4     8128  8131     354
   255   20.12000   20.16000    0.20000    28.75000   32.18000    0.20000    0.00100     50     8132  8181     355
   256   20.00000   20.00000    0.20000    20.16000   20.12000    0.20000    0.00100      4     8182  8185     356
   257   20.16000   20.12000    0.20000    32.07000   31.88000    0.20000    0.00100     50     8186  8235     357
   258   20.00000   20.00000    0.20000    20.19000   20.06000    0.20000    0.00100      4     8236  8239     358
   259   20.19000   20.06000    0.20000    34.24000   24.71000    0.20000    0.00100     50     8240  8289     359
   260   20.00000   20.00000    0.20000    20.20000   20.00000    0.20000    0.00100      4     8290  8293     360
   261   20.20000   20.00000    0.20000    35.00000   20.08000    0.20000    0.00100     50     8294  8343     361

   GROUND PLANE SPECIFIED.

   WHERE WIRE ENDS TOUCH GROUND, CURRENT WILL BE INTERPOLATED TO IMAGE IN GROUND PLANE.


   TOTAL SEGMENTS USED= 8343     NO. SEG. IN A SYMMETRIC CELL= 8343     SYMMETRY FLAG=  0


         - MULTIPLE WIRE JUNCTIONS -
 JUNCTION    SEGMENTS  (- FOR END 1, + FOR END 2)
     1        -1  -76 -151 -226 -301 -376 -451 -526  603
     2        75  150  225  300  375  450  525  600
     3      -601 -604 -658 -712 -766 -820 -874
     4      -928-1003-1078-1153-1228-1303-1378-1453 1530
     5      1002 1077 1152 1227 1302 1377 1452 1527
     6     -1528-1531-1585-1639-1693-1747-1801
     7     -1855-1930-2005-2080-2155-2230-2305-2380 2457
     8      1929 2004 2079 2154 2229 2304 2379 2454
     9     -2455-2458-2512-2566-2620-2674-2728
    10     -2782-2857-2932-3007-3082-3157-3232-3307 3384
    11      2856 2931 3006 3081 3156 3231 3306 3381
    12     -3382-3385-3439-3493-3547-3601-3655
    13     -3709-3784-3859-3934-4009-4084-4159-4234 4311
    14      3783 3858 3933 4008 4083 4158 4233 4308
    15     -4309-4312-4366-4420-4474-4528-4582
    16     -4636-4711-4786-4861-4936-5011-5086-5161 5238
    17      4710 4785 4860 4935 5010 5085 5160 5235
    18     -5236-5239-5293-5347-5401-5455-5509
    19     -5563-5638-5713-5788-5863-5938-6013-6088 6165
    20      5637 5712 5787 5862 5937 6012 6087 6162
    21     -6163-6166-6220-6274-6328-6382-6436
    22     -6490-6565-6640-6715-6790-6865-6940-7015 7092
    23      6564 6639 6714 6789 6864 6939 7014 7089
    24     -7090-7093-7147-7201-7255-7309-7363
    25     -7417-7492-7567-7642-7717-7792-7867-7942 8019
    26      7491 7566 7641 7716 7791 7866 7941 8016
    27     -8017-8020-8074-8128-8182-8236-8290




                                 - - - - SEGMENTATION DATA - - - -

                                        COORDINATES IN METERS

                         I+ AND I- INDICATE THE SEGMENTS BEFORE AND AFTER I


  SEG.   COORDINATES OF SEG. CENTER     SEG.     ORIENTATION ANGLES    WIRE    CONNECTION DATA   TAG
  NO.       X         Y         Z       LENGTH     ALPHA     BETA      RADIUS    I-   I    I+    NO.
     1 -20.03520 -20.03560   0.39700   0.13734   43.19198-134.67630   0.00100   -76    1    2    101
     2 -20.10560 -20.10680   0.49100   0.13734   43.19198-134.67630   0.00100     1    2    3    101
     3 -20.17600 -20.17800   0.58500   0.13734   43.19198-134.67630   0.00100     2    3    4    101
     4 -20.24640 -20.24920   0.67900   0.13734   43.19198-134.67630   0.00100     3    4    5    101
     5 -20.31680 -20.32040   0.77300   0.13734   43.19198-134.67630   0.00100     4    5    6    101
     6 -20.38720 -20.39160   0.86700   0.13734   43.19198-134.67630   0.00100     5    6    7    101
     7 -20.45760 -20.46280   0.96100   0.13734   43.19198-134.67630   0.00100     6    7    8    101
     8 -20.52800 -20.53400   1.05500   0.13734   43.19198-134.67630   0.00100     7    8    9    101
     9 -20.59840 -20.60520   1.14900   0.13734   43.19198-134.67630   0.00100     8    9   10    101
    10 -20.66880 -20.67640   1.24300   0.13734   43.19198-134.67630   0.00100     9   10   11    101
    11 -20.73920 -20.74760   1.33700   0.13734   43.19198-134.67630   0.00100    10   11   12    101
    12 -20.80960 -20.81880   1.43100   0.13734   43.19198-134.67630   0.00100    11   12   13    101
    13 -20.88000 -20.89000   1.52500   0.13734   43.19198-134.67630   0.00100    12   13   14    101
    14 -20.95040 -20.96120   1.61900   0.13734   43.19198-134.67630   0.00100    13   14   15    101
    15 -21.02080 -21.03240   1.71300   0.13734   43.19198-134.67630   0.00100    14   15   16    101
    16 -21.09120 -21.10360   1.80700   0.13734   43.19198-134.67630   0.00100    15   16   17    101
    17 -21.16160 -21.17480   1.90100   0.13734   43.19198-134.67630   0.00100    16   17   18    101
    18 -21.23200 -21.24600   1.99500   0.13734   43.19198-134.67630   0.00100    17   18   19    101
    19 -21.30240 -21.31720   2.08900   0.13734   43.19198-134.67630   0.00100    18   19   20    101
    20 -21.37280 -21.38840   2.18300   0.13734   43.19198-134.67630   0.00100    19   20   21    101
    21 -21.44320 -21.45960   2.27700   0.13734   43.19198-134.67630   0.00100    20   21   22    101
    22 -21.51360 -21.53080   2.37100   0.13734   43.19198-134.67630   0.00100    21   22   23    101
    23 -21.58400 -21.60200   2.46500   0.13734   43.19198-134.67630   0.00100    22   23   24    101
    24 -21.65440 -21.67320   2.55900   0.13734   43.19198-134.67630   0.00100    23   24   25    101
    25 -21.72480 -21.74440   2.65300   0.13734   43.19198-134.67630   0.00100    24   25   26    101
    26 -21.74240 -21.76220   2.82500   0.25496   78.67597  45.32370   0.00100    25   26   27    102
    27 -21.70720 -21.72660   3.07500   0.25496   78.67597  45.32370   0.00100    26   27   28    102
    28 -21.67200 -21.69100   3.32500   0.25496   78.67597  45.32370   0.00100    27   28   29    102
    29 -21.63680 -21.65540   3.57500   0.25496   78.67597  45.32370   0.00100    28   29   30    102
    30 -21.60160 -21.61980   3.82500   0.25496   78.67597  45.32370   0.00100    29   30   31    102
    31 -21.56640 -21.58420   4.07500   0.25496   78.67597  45.32370   0.00100    30   31   32    102
    32 -21.53120 -21.54860   4.32500   0.25496   78.67597  45.32370   0.00100    31   32   33    102
    33 -21.49600 -21.51300   4.57500   0.25496   78.67597  45.32370   0.00100    32   33   34    102
    34 -21.46080 -21.47740   4.82500   0.25496   78.67597  45.32370   0.00100    33   34   35    102
    35 -21.42560 -21.44180   5.07500   0.25496   78.67597  45.32370   0.00100    34   35   36    102
    36 -21.39040 -21.40620   5.32500   0.25496   78.67597  45.32370   0.00100    35   36   37    102
    37 -21.35520 -21.37060   5.57500   0.25496   78.67597  45.32370   0.00100    36   37   38    102
    38 -21.32000 -21.33500   5.82500   0.25496   78.67597  45.32370   0.00100    37   38   39    102
    39 -21.28480 -21.29940   6.07500   0.25496   78.67597  45.32370   0.00100    38   39   40    102
    40 -21.24960 -21.26380   6.32500   0.25496   78.67597  45.32370   0.00100    39   40   41    102
    41 -21.21440 -21.22820   6.57500   0.25496   78.67597  45.32370   0.00100    40   41   42    102
    42 -21.17920 -21.19260   6.82500   0.25496   78.67597  45.32370   0.00100    41   42   43    102
    43 -21.14400 -21.15700   7.07500   0.25496   78.67597  45.32370   0.00100    42   43   44    102
    44 -21.10880 -21.12140   7.32500   0.25496   78.67597  45.32370   0.00100    43   44   45    102
    45 -21.07360 -21.08580   7.57500   0.25496   78.67597  45.32370   0.00100    44   45   46    102
    46 -21.03840 -21.05020   7.82500   0.25496   78.67597  45.32370   0.00100    45   46   47    102
    47 -21.00320 -21.01460   8.07500   0.25496   78.67597  45.32370   0.00100    46   47   48    102
    48 -20.96800 -20.97900   8.32500   0.25496   78.67597  45.32370   0.00100    47   48   49    102
    49 -20.93280 -20.94340   8.57500   0.25496   78.67597  45.32370   0.00100    48   49   50    102
    50 -20.89760 -20.90780   8.82500   0.25496   78.67597  45.32370   0.00100    49   50   51    102
    51 -20.86240 -20.87220   9.07500   0.25496   78.67597  45.32370   0.00100    50   51   52    102
    52 -20.82720 -20.83660   9.32500   0.25496   78.67597  45.32370   0.00100    51   52   53    102
    53 -20.79200 -20.80100   9.57500   0.25496   78.67597  45.32370   0.00100    52   53   54    102
    54 -20.75680 -20.76540   9.82500   0.25496   78.67597  45.32370   0.00100    53   54   55    102
    55 -20.72160 -20.72980  10.07500   0.25496   78.67597  45.32370   0.00100    54   55   56    102
    56 -20.68640 -20.69420  10.32500   0.25496   78.67597  45.32370   0.00100    55   56   57    102
    57 -20.65120 -20.65860  10.57500   0.25496   78.67597  45.32370   0.00100    56   57   58    102
    58 -20.61600 -20.62300  10.82500   0.25496   78.67597  45.32370   0.00100    57   58   59    102
    59 -20.58080 -20.58740  11.07500   0.25496   78.67597  45.32370   0.00100    58   59   60    102
    60 -20.54560 -20.55180  11.32500   0.25496   78.67597  45.32370   0.00100    59   60   61    102
    61 -20.51040 -20.51620  11.57500   0.25496   78.67597  45.32370   0.00100    60   61   62    102
    62 -20.47520 -20.48060  11.82500   0.25496   78.67597  45.32370   0.00100    61   62   63    102
    63 -20.44000 -20.44500  12.07500   0.25496   78.67597  45.32370   0.00100    62   63   64    102
    64 -20.40480 -20.40940  12.32500   0.25496   78.67597  45.32370   0.00100    63   64   65    102
    65 -20.36960 -20.37380  12.57500   0.25496   78.67597  45.32370   0.00100    64   65   66    102
    66 -20.33440 -20.33820  12.82500   0.25496   78.67597  45.32370   0.00100    65   66   67    102
    67 -20.29920 -20.30260  13.07500   0.25496   78.67597  45.32370   0.00100    66   67   68    102
    68 -20.26400 -20.26700  13.32500   0.25496   78.67597  45.32370   0.00100    67   68   69    102
    69 -20.22880 -20.23140  13.57500   0.25496   78.67597  45.32370   0.00100    68   69   70    102
    70 -20.19360 -20.19580  13.82500   0.25496   78.67597  45.32370   0.00100    69   70   71    102
    71 -20.15840 -20.16020  14.07500   0.25496   78.67597  45.32370   0.00100    70   71   72    102
    72 -20.12320 -20.12460  14.32500   0.25496   78.67597  45.32370   0.00100    71   72   73    102
    73 -20.08800 -20.08900  14.57500   0.25496   78.67597  45.32370   0.00100    72   73   74    102
    74 -20.05280 -20.05340  14.82500   0.25496   78.67597  45.32370   0.00100    73   74   75    102
    75 -20.01760 -20.01780  15.07500   0.25496   78.67597  45.32370   0.00100    74   75 -150    102
    76 -20.05000 -20.00020   0.39700   0.13724   43.22830-179.77082   0.00100  -151   76   77    103
    77 -20.15000 -20.00060   0.49100   0.13724   43.22830-179.77082   0.00100    76   77   78    103
    78 -20.25000 -20.00100   0.58500   0.13724   43.22830-179.77082   0.00100    77   78   79    103
    79 -20.35000 -20.00140   0.67900   0.13724   43.22830-179.77082   0.00100    78   79   80    103
    80 -20.45000 -20.00180   0.77300   0.13724   43.22830-179.77082   0.00100    79   80   81    103
    81 -20.55000 -20.00220   0.86700   0.13724   43.22830-179.77082   0.00100    80   81   82    103
    82 -20.65000 -20.00260   0.96100   0.13724   43.22830-179.77082   0.00100    81   82   83    103
    83 -20.75000 -20.00300   1.05500   0.13724   43.22830-179.77082   0.00100    82   83   84    103
    84 -20.85000 -20.00340   1.14900   0.13724   43.22830-179.77082   0.00100    83   84   85    103
    85 -20.95000 -20.00380   1.24300   0.13724   43.22830-179.77082   0.00100    84   85   86    103
    86 -21.05000 -20.00420   1.33700   0.13724   43.22830-179.77082   0.00100    85   86   87    103
    87 -21.15000 -20.00460   1.43100   0.13724   43.22830-179.77082   0.00100    86   87   88    103
    88 -21.25000 -20.00500   1.52500   0.13724   43.22830-179.77082   0.00100    87   88   89    103
    89 -21.35000 -20.00540   1.61900   0.13724   43.22830-179.77082   0.00100    88   89   90    103
    90 -21.45000 -20.00580   1.71300   0.13724   43.22830-179.77082   0.00100    89   90   91    103
    91 -21.55000 -20.00620   1.80700   0.13724   43.22830-179.77082   0.00100    90   91   92    103
    92 -21.65000 -20.00660   1.90100   0.13724   43.22830-179.77082   0.00100    91   92   93    103
    93 -21.75000 -20.00700   1.99500   0.13724   43.22830-179.77082   0.00100    92   93   94    103
    94 -21.85000 -20.00740   2.08900   0.13724   43.22830-179.77082   0.00100    93   94   95    103
    95 -21.95000 -20.00780   2.18300   0.13724   43.22830-179.77082   0.00100    94   95   96    103
    96 -22.05000 -20.00820   2.27700   0.13724   43.22830-179.77082   0.00100    95   96   97    103
    97 -22.15000 -20.00860   2.37100   0.13724   43.22830-179.77082   0.00100    96   97   98    103
    98 -22.25000 -20.00900   2.46500   0.13724   43.22830-179.77082   0.00100    97   98   99    103
    99 -22.35000 -20.00940   2.55900   0.13724   43.22830-179.77082   0.00100    98   99  100    103
   100 -22.45000 -20.00980   2.65300   0.13724   43.22830-179.77082   0.00100    99  100  101    103
   101 -22.47500 -20.00990   2.82500   0.25495   78.68998   0.22918   0.00100   100  101  102    104
   102 -22.42500 -20.00970   3.07500   0.25495   78.68998   0.22918   0.00100   101  102  103    104
   103 -22.37500 -20.00950   3.32500   0.25495   78.68998   0.22918   0.00100   102  103  104    104
   104 -22.32500 -20.00930   3.57500   0.25495   78.68998   0.22918   0.00100   103  104  105    104
   105 -22.27500 -20.00910   3.82500   0.25495   78.68998   0.22918   0.00100   104  105  106    104
   106 -22.22500 -20.00890   4.07500   0.25495   78.68998   0.22918   0.00100   105  106  107    104
   107 -22.17500 -20.00870   4.32500   0.25495   78.68998   0.22918   0.00100   106  107  108    104
   108 -22.12500 -20.00850   4.57500   0.25495   78.68998   0.22918   0.00100   107  108  109    104
   109 -22.07500 -20.00830   4.82500   0.25495   78.68998   0.22918   0.00100   108  109  110    104
   110 -22.02500 -20.00810   5.07500   0.25495   78.68998   0.22918   0.00100   109  110  111    104
   111 -21.97500 -20.00790   5.32500   0.25495   78.68998   0.22918   0.00100   110  111  112    104
   112 -21.92500 -20.00770   5.57500   0.25495   78.68998   0.22918   0.00100   111  112  113    104
   113 -21.87500 -20.00750   5.82500   0.25495   78.68998   0.22918   0.00100   112  113  114    104
   114 -21.82500 -20.00730   6.07500   0.25495   78.68998   0.22918   0.00100   113  114  115    104
   115 -21.77500 -20.00710   6.32500   0.25495   78.68998   0.22918   0.00100   114  115  116    104
   116 -21.72500 -20.00690   6.57500   0.25495   78.68998   0.22918   0.00100   115  116  117    104
   117 -21.67500 -20.00670   6.82500   0.25495   78.68998   0.22918   0.00100   116  117  118    104
   118 -21.62500 -20.00650   7.07500   0.25495   78.68998   0.22918   0.00100   117  118  119    104
   119 -21.57500 -20.00630   7.32500   0.25495   78.68998   0.22918   0.00100   118  119  120    104
   120 -21.52500 -20.00610   7.57500   0.25495   78.68998   0.22918   0.00100   119  120  121    104
   121 -21.47500 -20.00590   7.82500   0.25495   78.68998   0.22918   0.00100   120  121  122    104
   122 -21.42500 -20.00570   8.07500   0.25495   78.68998   0.22918   0.00100   121  122  123    104
   123 -21.37500 -20.00550   8.32500   0.25495   78.68998   0.22918   0.00100   122  123  124    104
   124 -21.32500 -20.00530   8.57500   0.25495   78.68998   0.22918   0.00100   123  124  125    104
   125 -21.27500 -20.00510   8.82500   0.25495   78.68998   0.22918   0.00100   124  125  126    104
   126 -21.22500 -20.00490   9.07500   0.25495   78.68998   0.22918   0.00100   125  126  127    104
   127 -21.17500 -20.00470   9.32500   0.25495   78.68998   0.22918   0.00100   126  127  128    104
   128 -21.12500 -20.00450   9.57500   0.25495   78.68998   0.22918   0.00100   127  128  129    104
   129 -21.07500 -20.00430   9.82500   0.25495   78.68998   0.22918   0.00100   128  129  130    104
   130 -21.02500 -20.00410  10.07500   0.25495   78.68998   0.22918   0.00100   129  130  131    104
   131 -20.97500 -20.00390  10.32500   0.25495   78.68998   0.22918   0.00100   130  131  132    104
   132 -20.92500 -20.00370  10.57500   0.25495   78.68998   0.22918   0.00100   131  132  133    104
   133 -20.87500 -20.00350  10.82500   0.25495   78.68998   0.22918   0.00100   132  133  134    104
   134 -20.82500 -20.00330  11.07500   0.25495   78.68998   0.22918   0.00100   133  134  135    104
   135 -20.77500 -20.00310  11.32500   0.25495   78.68998   0.22918   0.00100   134  135  136    104
   136 -20.72500 -20.00290  11.57500   0.25495   78.68998   0.22918   0.00100   135  136  137    104
   137 -20.67500 -20.00270  11.82500   0.25495   78.68998   0.22918   0.00100   136  137  138    104
   138 -20.62500 -20.00250  12.07500   0.25495   78.68998   0.22918   0.00100   137  138  139    104
   139 -20.57500 -20.00230  12.32500   0.25495   78.68998   0.22918   0.00100   138  139  140    104
   140 -20.52500 -20.00210  12.57500   0.25495   78.68998   0.22918   0.00100   139  140  141    104
   141 -20.47500 -20.00190  12.82500   0.25495   78.68998   0.22918   0.00100   140  141  142    104
   142 -20.42500 -20.00170  13.07500   0.25495   78.68998   0.22918   0.00100   141  142  143    104
   143 -20.37500 -20.00150  13.32500   0.25495   78.68998   0.22918   0.00100   142  143  144    104
   144 -20.32500 -20.00130  13.57500   0.25495   78.68998   0.22918   0.00100   143  144  145    104
   145 -20.27500 -20.00110  13.82500   0.25495   78.68998   0.22918   0.00100   144  145  146    104
   146 -20.22500 -20.00090  14.07500   0.25495   78.68998   0.22918   0.00100   145  146  147    104
   147 -20.17500 -20.00070  14.32500   0.25495   78.68998   0.22918   0.00100   146  147  148    104
   148 -20.12500 -20.00050  14.57500   0.25495   78.68998   0.22918   0.00100   147  148  149    104
   149 -20.07500 -20.00030  14.82500   0.25495   78.68998   0.22918   0.00100   148  149  150    104
   150 -20.02500 -20.00010  15.07500   0.25495   78.68998   0.22918   0.00100   149  150 -225    104
   151 -20.03560 -19.95560   0.39700   0.14762   39.55224 128.72270   0.00100  -226  151  152    105
   152 -20.10680 -19.86680   0.49100   0.14762   39.55224 128.72270   0.00100   151  152  153    105
   153 -20.17800 -19.77800   0.58500   0.14762   39.55224 128.72270   0.00100   152  153  154    105
   154 -20.24920 -19.68920   0.67900   0.14762   39.55224 128.72270   0.00100   153  154  155    105
   155 -20.32040 -19.60040   0.77300   0.14762   39.55224 128.72270   0.00100   154  155  156    105
   156 -20.39160 -19.51160   0.86700   0.14762   39.55224 128.72270   0.00100   155  156  157    105
   157 -20.46280 -19.42280   0.96100   0.14762   39.55224 128.72270   0.00100   156  157  158    105
   158 -20.53400 -19.33400   1.05500   0.14762   39.55224 128.72270   0.00100   157  158  159    105
   159 -20.60520 -19.24520   1.14900   0.14762   39.55224 128.72270   0.00100   158  159  160    105
   160 -20.67640 -19.15640   1.24300   0.14762   39.55224 128.72270   0.00100   159  160  161    105
   161 -20.74760 -19.06760   1.33700   0.14762   39.55224 128.72270   0.00100   160  161  162    105
   162 -20.81880 -18.97880   1.43100   0.14762   39.55224 128.72270   0.00100   161  162  163    105
   163 -20.89000 -18.89000   1.52500   0.14762   39.55224 128.72270   0.00100   162  163  164    105
   164 -20.96120 -18.80120   1.61900   0.14762   39.55224 128.72270   0.00100   163  164  165    105
   165 -21.03240 -18.71240   1.71300   0.14762   39.55224 128.72270   0.00100   164  165  166    105
   166 -21.10360 -18.62360   1.80700   0.14762   39.55224 128.72270   0.00100   165  166  167    105
   167 -21.17480 -18.53480   1.90100   0.14762   39.55224 128.72270   0.00100   166  167  168    105
   168 -21.24600 -18.44600   1.99500   0.14762   39.55224 128.72270   0.00100   167  168  169    105
   169 -21.31720 -18.35720   2.08900   0.14762   39.55224 128.72270   0.00100   168  169  170    105
   170 -21.38840 -18.26840   2.18300   0.14762   39.55224 128.72270   0.00100   169  170  171    105
   171 -21.45960 -18.17960   2.27700   0.14762   39.55224 128.72270   0.00100   170  171  172    105
   172 -21.53080 -18.09080   2.37100   0.14762   39.55224 128.72270   0.00100   171  172  173    105
   173 -21.60200 -18.00200   2.46500   0.14762   39.55224 128.72270   0.00100   172  173  174    105
   174 -21.67320 -17.91320   2.55900   0.14762   39.55224 128.72270   0.00100   173  174  175    105
   175 -21.74440 -17.82440   2.65300   0.14762   39.55224 128.72270   0.00100   174  175  176    105
   176 -21.76220 -17.80220   2.82500   0.25640   77.17578 -51.27730   0.00100   175  176  177    106
   177 -21.72660 -17.84660   3.07500   0.25640   77.17578 -51.27730   0.00100   176  177  178    106
   178 -21.69100 -17.89100   3.32500   0.25640   77.17578 -51.27730   0.00100   177  178  179    106
   179 -21.65540 -17.93540   3.57500   0.25640   77.17578 -51.27730   0.00100   178  179  180    106
   180 -21.61980 -17.97980   3.82500   0.25640   77.17578 -51.27730   0.00100   179  180  181    106
   181 -21.58420 -18.02420   4.07500   0.25640   77.17578 -51.27730   0.00100   180  181  182    106
   182 -21.54860 -18.06860   4.32500   0.25640   77.17578 -51.27730   0.00100   181  182  183    106
   183 -21.51300 -18.11300   4.57500   0.25640   77.17578 -51.27730   0.00100   182  183  184    106
   184 -21.47740 -18.15740   4.82500   0.25640   77.17578 -51.27730   0.00100   183  184  185    106
   185 -21.44180 -18.20180   5.07500   0.25640   77.17578 -51.27730   0.00100   184  185  186    106
   186 -21.40620 -18.24620   5.32500   0.25640   77.17578 -51.27730   0.00100   185  186  187    106
   187 -21.37060 -18.29060   5.57500   0.25640   77.17578 -51.27730   0.00100   186  187  188    106
   188 -21.33500 -18.33500   5.82500   0.25640   77.17578 -51.27730   0.00100   187  188  189    106
   189 -21.29940 -18.37940   6.07500   0.25640   77.17578 -51.27730   0.00100   188  189  190    106
   190 -21.26380 -18.42380   6.32500   0.25640   77.17578 -51.27730   0.00100   189  190  191    106
   191 -21.22820 -18.46820   6.57500   0.25640   77.17578 -51.27730   0.00100   190  191  192    106
   192 -21.19260 -18.51260   6.82500   0.25640   77.17578 -51.27730   0.00100   191  192  193    106
   193 -21.15700 -18.55700   7.07500   0.25640   77.17578 -51.27730   0.00100   192  193  194    106
   194 -21.12140 -18.60140   7.32500   0.25640   77.17578 -51.27730   0.00100   193  194  195    106
   195 -21.08580 -18.64580   7.57500   0.25640   77.17578 -51.27730   0.00100   194  195  196    106
   196 -21.05020 -18.69020   7.82500   0.25640   77.17578 -51.27730   0.00100   195  196  197    106
   197 -21.01460 -18.73460   8.07500   0.25640   77.17578 -51.27730   0.00100   196  197  198    106
   198 -20.97900 -18.77900   8.32500   0.25640   77.17578 -51.27730   0.00100   197  198  199    106
   199 -20.94340 -18.82340   8.57500   0.25640   77.17578 -51.27730   0.00100   198  199  200    106
   200 -20.90780 -18.86780   8.82500   0.25640   77.17578 -51.27730   0.00100   199  200  201    106
   201 -20.87220 -18.91220   9.07500   0.25640   77.17578 -51.27730   0.00100   200  201  202    106
   202 -20.83660 -18.95660   9.32500   0.25640   77.17578 -51.27730   0.00100   201  202  203    106
   203 -20.80100 -19.00100   9.57500   0.25640   77.17578 -51.27730   0.00100   202  203  204    106
   204 -20.76540 -19.04540   9.82500   0.25640   77.17578 -51.27730   0.00100   203  204  205    106
   205 -20.72980 -19.08980  10.07500   0.25640   77.17578 -51.27730   0.00100   204  205  206    106
   206 -20.69420 -19.13420  10.32500   0.25640   77.17578 -51.27730   0.00100   205  206  207    106
   207 -20.65860 -19.17860  10.57500   0.25640   77.17578 -51.27730   0.00100   206  207  208    106
   208 -20.62300 -19.22300  10.82500   0.25640   77.17578 -51.27730   0.00100   207  208  209    106
   209 -20.58740 -19.26740  11.07500   0.25640   77.17578 -51.27730   0.00100   208  209  210    106
   210 -20.55180 -19.31180  11.32500   0.25640   77.17578 -51.27730   0.00100   209  210  211    106
   211 -20.51620 -19.35620  11.57500   0.25640   77.17578 -51.27730   0.00100   210  211  212    106
   212 -20.48060 -19.40060  11.82500   0.25640   77.17578 -51.27730   0.00100   211  212  213    106
   213 -20.44500 -19.44500  12.07500   0.25640   77.17578 -51.27730   0.00100   212  213  214    106
   214 -20.40940 -19.48940  12.32500   0.25640   77.17578 -51.27730   0.00100   213  214  215    106
   215 -20.37380 -19.53380  12.57500   0.25640   77.17578 -51.27730   0.00100   214  215  216    106
   216 -20.33820 -19.57820  12.82500   0.25640   77.17578 -51.27730   0.00100   215  216  217    106
   217 -20.30260 -19.62260  13.07500   0.25640   77.17578 -51.27730   0.00100   216  217  218    106
   218 -20.26700 -19.66700  13.32500   0.25640   77.17578 -51.27730   0.00100   217  218  219    106
   219 -20.23140 -19.71140  13.57500   0.25640   77.17578 -51.27730   0.00100   218  219  220    106
   220 -20.19580 -19.75580  13.82500   0.25640   77.17578 -51.27730   0.00100   219  220  221    106
   221 -20.16020 -19.80020  14.07500   0.25640   77.17578 -51.27730   0.00100   220  221  222    106
   222 -20.12460 -19.84460  14.32500   0.25640   77.17578 -51.27730   0.00100   221  222  223    106
   223 -20.08900 -19.88900  14.57500   0.25640   77.17578 -51.27730   0.00100   222  223  224    106
   224 -20.05340 -19.93340  14.82500   0.25640   77.17578 -51.27730   0.00100   223  224  225    106
   225 -20.01780 -19.97780  15.07500   0.25640   77.17578 -51.27730   0.00100   224  225 -300    106
   226 -20.00020 -19.95000   0.39700   0.13724   43.22830  90.22918   0.00100  -301  226  227    107
   227 -20.00060 -19.85000   0.49100   0.13724   43.22830  90.22918   0.00100   226  227  228    107
   228 -20.00100 -19.75000   0.58500   0.13724   43.22830  90.22918   0.00100   227  228  229    107
   229 -20.00140 -19.65000   0.67900   0.13724   43.22830  90.22918   0.00100   228  229  230    107
   230 -20.00180 -19.55000   0.77300   0.13724   43.22830  90.22918   0.00100   229  230  231    107
   231 -20.00220 -19.45000   0.86700   0.13724   43.22830  90.22918   0.00100   230  231  232    107
   232 -20.00260 -19.35000   0.96100   0.13724   43.22830  90.22918   0.00100   231  232  233    107
   233 -20.00300 -19.25000   1.05500   0.13724   43.22830  90.22918   0.00100   232  233  234    107
   234 -20.00340 -19.15000   1.14900   0.13724   43.22830  90.22918   0.00100   233  234  235    107
   235 -20.00380 -19.05000   1.24300   0.13724   43.22830  90.22918   0.00100   234  235  236    107
   236 -20.00420 -18.95000   1.33700   0.13724   43.22830  90.22918   0.00100   235  236  237    107
   237 -20.00460 -18.85000   1.43100   0.13724   43.22830  90.22918   0.00100   236  237  238    107
   238 -20.00500 -18.75000   1.52500   0.13724   43.22830  90.22918   0.00100   237  238  239    107
   239 -20.00540 -18.65000   1.61900   0.13724   43.22830  90.22918   0.00100   238  239  240    107
   240 -20.00580 -18.55000   1.71300   0.13724   43.22830  90.22918   0.00100   239  240  241    107
   241 -20.00620 -18.45000   1.80700   0.13724   43.22830  90.22918   0.00100   240  241  242    107
   242 -20.00660 -18.35000   1.90100   0.13724   43.22830  90.22918   0.00100   241  242  243    107
   243 -20.00700 -18.25000   1.99500   0.13724   43.22830  90.22918   0.00100   242  243  244    107
   244 -20.00740 -18.15000   2.08900   0.13724   43.22830  90.22918   0.00100   243  244  245    107
   245 -20.00780 -18.05000   2.18300   0.13724   43.22830  90.22918   0.00100   244  245  246    107
   246 -20.00820 -17.95000   2.27700   0.13724   43.22830  90.22918   0.00100   245  246  247    107
   247 -20.00860 -17.85000   2.37100   0.13724   43.22830  90.22918   0.00100   246  247  248    107
   248 -20.00900 -17.75000   2.46500   0.13724   43.22830  90.22918   0.00100   247  248  249    107
   249 -20.00940 -17.65000   2.55900   0.13724   43.22830  90.22918   0.00100   248  249  250    107
   250 -20.00980 -17.55000   2.65300   0.13724   43.22830  90.22918   0.00100   249  250  251    107
   251 -20.00990 -17.52500   2.82500   0.25495   78.68998 -89.77082   0.00100   250  251  252    108
   252 -20.00970 -17.57500   3.07500   0.25495   78.68998 -89.77082   0.00100   251  252  253    108
   253 -20.00950 -17.62500   3.32500   0.25495   78.68998 -89.77082   0.00100   252  253  254    108
   254 -20.00930 -17.67500   3.57500   0.25495   78.68998 -89.77082   0.00100   253  254  255    108
   255 -20.00910 -17.72500   3.82500   0.25495   78.68998 -89.77082   0.00100   254  255  256    108
   256 -20.00890 -17.77500   4.07500   0.25495   78.68998 -89.77082   0.00100   255  256  257    108
   257 -20.00870 -17.82500   4.32500   0.25495   78.68998 -89.77082   0.00100   256  257  258    108
   258 -20.00850 -17.87500   4.57500   0.25495   78.68998 -89.77082   0.00100   257  258  259    108
   259 -20.00830 -17.92500   4.82500   0.25495   78.68998 -89.77082   0.00100   258  259  260    108
   260 -20.00810 -17.97500   5.07500   0.25495   78.68998 -89.77082   0.00100   259  260  261    108
   261 -20.00790 -18.02500   5.32500   0.25495   78.68998 -89.77082   0.00100   260  261  262    108
   262 -20.00770 -18.07500   5.57500   0.25495   78.68998 -89.77082   0.00100   261  262  263    108
   263 -20.00750 -18.12500   5.82500   0.25495   78.68998 -89.77082   0.00100   262  263  264    108
   264 -20.00730 -18.17500   6.07500   0.25495   78.68998 -89.77082   0.00100   263  264  265    108
   265 -20.00710 -18.22500   6.32500   0.25495   78.68998 -89.77082   0.00100   264  265  266    108
   266 -20.00690 -18.27500   6.57500   0.25495   78.68998 -89.77082   0.00100   265  266  267    108
   267 -20.00670 -18.32500   6.82500   0.25495   78.68998 -89.77082   0.00100   266  267  268    108
   268 -20.00650 -18.37500   7.07500   0.25495   78.68998 -89.77082   0.00100   267  268  269    108
   269 -20.00630 -18.42500   7.32500   0.25495   78.68998 -89.77082   0.00100   268  269  270    108
   270 -20.00610 -18.47500   7.57500   0.25495   78.68998 -89.77082   0.00100   269  270  271    108
   271 -20.00590 -18.52500   7.82500   0.25495   78.68998 -89.77082   0.00100   270  271  272    108
   272 -20.00570 -18.57500   8.07500   0.25495   78.68998 -89.77082   0.00100   271  272  273    108
   273 -20.00550 -18.62500   8.32500   0.25495   78.68998 -89.77082   0.00100   272  273  274    108
   274 -20.00530 -18.67500   8.57500   0.25495   78.68998 -89.77082   0.00100   273  274  275    108
   275 -20.00510 -18.72500   8.82500   0.25495   78.68998 -89.77082   0.00100   274  275  276    108
   276 -20.00490 -18.77500   9.07500   0.25495   78.68998 -89.77082   0.00100   275  276  277    108
   277 -20.00470 -18.82500   9.32500   0.25495   78.68998 -89.77082   0.00100   276  277  278    108
   278 -20.00450 -18.87500   9.57500   0.25495   78.68998 -89.77082   0.00100   277  278  279    108
   279 -20.00430 -18.92500   9.82500   0.25495   78.68998 -89.77082   0.00100   278  279  280    108
   280 -20.00410 -18.97500  10.07500   0.25495   78.68998 -89.77082   0.00100   279  280  281    108
   281 -20.00390 -19.02500  10.32500   0.25495   78.68998 -89.77082   0.00100   280  281  282    108
   282 -20.00370 -19.07500  10.57500   0.25495   78.68998 -89.77082   0.00100   281  282  283    108
   283 -20.00350 -19.12500  10.82500   0.25495   78.68998 -89.77082   0.00100   282  283  284    108
   284 -20.00330 -19.17500  11.07500   0.25495   78.68998 -89.77082   0.00100   283  284  285    108
   285 -20.00310 -19.22500  11.32500   0.25495   78.68998 -89.77082   0.00100   284  285  286    108
   286 -20.00290 -19.27500  11.57500   0.25495   78.68998 -89.77082   0.00100   285  286  287    108
   287 -20.00270 -19.32500  11.82500   0.25495   78.68998 -89.77082   0.00100   286  287  288    108
   288 -20.00250 -19.37500  12.07500   0.25495   78.68998 -89.77082   0.00100   287  288  289    108
   289 -20.00230 -19.42500  12.32500   0.25495   78.68998 -89.77082   0.00100   288  289  290    108
   290 -20.00210 -19.47500  12.57500   0.25495   78.68998 -89.77082   0.00100   289  290  291    108
   291 -20.00190 -19.52500  12.82500   0.25495   78.68998 -89.77082   0.00100   290  291  292    108
   292 -20.00170 -19.57500  13.07500   0.25495   78.68998 -89.77082   0.00100   291  292  293    108
   293 -20.00150 -19.62500  13.32500   0.25495   78.68998 -89.77082   0.00100   292  293  294    108
   294 -20.00130 -19.67500  13.57500   0.25495   78.68998 -89.77082   0.00100   293  294  295    108
   295 -20.00110 -19.72500  13.82500   0.25495   78.68998 -89.77082   0.00100   294  295  296    108
   296 -20.00090 -19.77500  14.07500   0.25495   78.68998 -89.77082   0.00100   295  296  297    108
   297 -20.00070 -19.82500  14.32500   0.25495   78.68998 -89.77082   0.00100   296  297  298    108
   298 -20.00050 -19.87500  14.57500   0.25495   78.68998 -89.77082   0.00100   297  298  299    108
   299 -20.00030 -19.92500  14.82500   0.25495   78.68998 -89.77082   0.00100   298  299  300    108
   300 -20.00010 -19.97500  15.07500   0.25495   78.68998 -89.77082   0.00100   299  300 -375    108
   301 -19.95560 -19.95520   0.39700   0.15732   36.69163  45.25693   0.00100  -376  301  302    109
   302 -19.86680 -19.86560   0.49100   0.15732   36.69163  45.25693   0.00100   301  302  303    109
   303 -19.77800 -19.77600   0.58500   0.15732   36.69163  45.25693   0.00100   302  303  304    109
   304 -19.68920 -19.68640   0.67900   0.15732   36.69163  45.25693   0.00100   303  304  305    109
   305 -19.60040 -19.59680   0.77300   0.15732   36.69163  45.25693   0.00100   304  305  306    109
   306 -19.51160 -19.50720   0.86700   0.15732   36.69163  45.25693   0.00100   305  306  307    109
   307 -19.42280 -19.41760   0.96100   0.15732   36.69163  45.25693   0.00100   306  307  308    109
   308 -19.33400 -19.32800   1.05500   0.15732   36.69163  45.25693   0.00100   307  308  309    109
   309 -19.24520 -19.23840   1.14900   0.15732   36.69163  45.25693   0.00100   308  309  310    109
   310 -19.15640 -19.14880   1.24300   0.15732   36.69163  45.25693   0.00100   309  310  311    109
   311 -19.06760 -19.05920   1.33700   0.15732   36.69163  45.25693   0.00100   310  311  312    109
   312 -18.97880 -18.96960   1.43100   0.15732   36.69163  45.25693   0.00100   311  312  313    109
   313 -18.89000 -18.88000   1.52500   0.15732   36.69163  45.25693   0.00100   312  313  314    109
   314 -18.80120 -18.79040   1.61900   0.15732   36.69163  45.25693   0.00100   313  314  315    109
   315 -18.71240 -18.70080   1.71300   0.15732   36.69163  45.25693   0.00100   314  315  316    109
   316 -18.62360 -18.61120   1.80700   0.15732   36.69163  45.25693   0.00100   315  316  317    109
   317 -18.53480 -18.52160   1.90100   0.15732   36.69163  45.25693   0.00100   316  317  318    109
   318 -18.44600 -18.43200   1.99500   0.15732   36.69163  45.25693   0.00100   317  318  319    109
   319 -18.35720 -18.34240   2.08900   0.15732   36.69163  45.25693   0.00100   318  319  320    109
   320 -18.26840 -18.25280   2.18300   0.15732   36.69163  45.25693   0.00100   319  320  321    109
   321 -18.17960 -18.16320   2.27700   0.15732   36.69163  45.25693   0.00100   320  321  322    109
   322 -18.09080 -18.07360   2.37100   0.15732   36.69163  45.25693   0.00100   321  322  323    109
   323 -18.00200 -17.98400   2.46500   0.15732   36.69163  45.25693   0.00100   322  323  324    109
   324 -17.91320 -17.89440   2.55900   0.15732   36.69163  45.25693   0.00100   323  324  325    109
   325 -17.82440 -17.80480   2.65300   0.15732   36.69163  45.25693   0.00100   324  325  326    109
   326 -17.80220 -17.78240   2.82500   0.25783   75.83989-134.74307   0.00100   325  326  327    110
   327 -17.84660 -17.82720   3.07500   0.25783   75.83989-134.74307   0.00100   326  327  328    110
   328 -17.89100 -17.87200   3.32500   0.25783   75.83989-134.74307   0.00100   327  328  329    110
   329 -17.93540 -17.91680   3.57500   0.25783   75.83989-134.74307   0.00100   328  329  330    110
   330 -17.97980 -17.96160   3.82500   0.25783   75.83989-134.74307   0.00100   329  330  331    110
   331 -18.02420 -18.00640   4.07500   0.25783   75.83989-134.74307   0.00100   330  331  332    110
   332 -18.06860 -18.05120   4.32500   0.25783   75.83989-134.74307   0.00100   331  332  333    110
   333 -18.11300 -18.09600   4.57500   0.25783   75.83989-134.74307   0.00100   332  333  334    110
   334 -18.15740 -18.14080   4.82500   0.25783   75.83989-134.74307   0.00100   333  334  335    110
   335 -18.20180 -18.18560   5.07500   0.25783   75.83989-134.74307   0.00100   334  335  336    110
   336 -18.24620 -18.23040   5.32500   0.25783   75.83989-134.74307   0.00100   335  336  337    110
   337 -18.29060 -18.27520   5.57500   0.25783   75.83989-134.74307   0.00100   336  337  338    110
   338 -18.33500 -18.32000   5.82500   0.25783   75.83989-134.74307   0.00100   337  338  339    110
   339 -18.37940 -18.36480   6.07500   0.25783   75.83989-134.74307   0.00100   338  339  340    110
   340 -18.42380 -18.40960   6.32500   0.25783   75.83989-134.74307   0.00100   339  340  341    110
   341 -18.46820 -18.45440   6.57500   0.25783   75.83989-134.74307   0.00100   340  341  342    110
   342 -18.51260 -18.49920   6.82500   0.25783   75.83989-134.74307   0.00100   341  342  343    110
   343 -18.55700 -18.54400   7.07500   0.25783   75.83989-134.74307   0.00100   342  343  344    110
   344 -18.60140 -18.58880   7.32500   0.25783   75.83989-134.74307   0.00100   343  344  345    110
   345 -18.64580 -18.63360   7.57500   0.25783   75.83989-134.74307   0.00100   344  345  346    110
   346 -18.69020 -18.67840   7.82500   0.25783   75.83989-134.74307   0.00100   345  346  347    110
   347 -18.73460 -18.72320   8.07500   0.25783   75.83989-134.74307   0.00100   346  347  348    110
   348 -18.77900 -18.76800   8.32500   0.25783   75.83989-134.74307   0.00100   347  348  349    110
   349 -18.82340 -18.81280   8.57500   0.25783   75.83989-134.74307   0.00100   348  349  350    110
   350 -18.86780 -18.85760   8.82500   0.25783   75.83989-134.74307   0.00100   349  350  351    110
   351 -18.91220 -18.90240   9.07500   0.25783   75.83989-134.74307   0.00100   350  351  352    110
   352 -18.95660 -18.94720   9.32500   0.25783   75.83989-134.74307   0.00100   351  352  353    110
   353 -19.00100 -18.99200   9.57500   0.25783   75.83989-134.74307   0.00100   352  353  354    110
   354 -19.04540 -19.03680   9.82500   0.25783   75.83989-134.74307   0.00100   353  354  355    110
   355 -19.08980 -19.08160  10.07500   0.25783   75.83989-134.74307   0.00100   354  355  356    110
   356 -19.13420 -19.12640  10.32500   0.25783   75.83989-134.74307   0.00100   355  356  357    110
   357 -19.17860 -19.17120  10.57500   0.25783   75.83989-134.74307   0.00100   356  357  358    110
   358 -19.22300 -19.21600  10.82500   0.25783   75.83989-134.74307   0.00100   357  358  359    110
   359 -19.26740 -19.26080  11.07500   0.25783   75.83989-134.74307   0.00100   358  359  360    110
   360 -19.31180 -19.30560  11.32500   0.25783   75.83989-134.74307   0.00100   359  360  361    110
   361 -19.35620 -19.35040  11.57500   0.25783   75.83989-134.74307   0.00100   360  361  362    110
   362 -19.40060 -19.39520  11.82500   0.25783   75.83989-134.74307   0.00100   361  362  363    110
   363 -19.44500 -19.44000  12.07500   0.25783   75.83989-134.74307   0.00100   362  363  364    110
   364 -19.48940 -19.48480  12.32500   0.25783   75.83989-134.74307   0.00100   363  364  365    110
   365 -19.53380 -19.52960  12.57500   0.25783   75.83989-134.74307   0.00100   364  365  366    110
   366 -19.57820 -19.57440  12.82500   0.25783   75.83989-134.74307   0.00100   365  366  367    110
   367 -19.62260 -19.61920  13.07500   0.25783   75.83989-134.74307   0.00100   366  367  368    110
   368 -19.66700 -19.66400  13.32500   0.25783   75.83989-134.74307   0.00100   367  368  369    110
   369 -19.71140 -19.70880  13.57500   0.25783   75.83989-134.74307   0.00100   368  369  370    110
   370 -19.75580 -19.75360  13.82500   0.25783   75.83989-134.74307   0.00100   369  370  371    110
   371 -19.80020 -19.79840  14.07500   0.25783   75.83989-134.74307   0.00100   370  371  372    110
   372 -19.84460 -19.84320  14.32500   0.25783   75.83989-134.74307   0.00100   371  372  373    110
   373 -19.88900 -19.88800  14.57500   0.25783   75.83989-134.74307   0.00100   372  373  374    110
   374 -19.93340 -19.93280  14.82500   0.25783   75.83989-134.74307   0.00100   373  374  375    110
   375 -19.97780 -19.97760  15.07500   0.25783   75.83989-134.74307   0.00100   374  375 -450    110
   376 -19.95000 -19.99980   0.39700   0.13724   43.22830   0.22918   0.00100  -451  376  377    111
   377 -19.85000 -19.99940   0.49100   0.13724   43.22830   0.22918   0.00100   376  377  378    111
   378 -19.75000 -19.99900   0.58500   0.13724   43.22830   0.22918   0.00100   377  378  379    111
   379 -19.65000 -19.99860   0.67900   0.13724   43.22830   0.22918   0.00100   378  379  380    111
   380 -19.55000 -19.99820   0.77300   0.13724   43.22830   0.22918   0.00100   379  380  381    111
   381 -19.45000 -19.99780   0.86700   0.13724   43.22830   0.22918   0.00100   380  381  382    111
   382 -19.35000 -19.99740   0.96100   0.13724   43.22830   0.22918   0.00100   381  382  383    111
   383 -19.25000 -19.99700   1.05500   0.13724   43.22830   0.22918   0.00100   382  383  384    111
   384 -19.15000 -19.99660   1.14900   0.13724   43.22830   0.22918   0.00100   383  384  385    111
   385 -19.05000 -19.99620   1.24300   0.13724   43.22830   0.22918   0.00100   384  385  386    111
   386 -18.95000 -19.99580   1.33700   0.13724   43.22830   0.22918   0.00100   385  386  387    111
   387 -18.85000 -19.99540   1.43100   0.13724   43.22830   0.22918   0.00100   386  387  388    111
   388 -18.75000 -19.99500   1.52500   0.13724   43.22830   0.22918   0.00100   387  388  389    111
   389 -18.65000 -19.99460   1.61900   0.13724   43.22830   0.22918   0.00100   388  389  390    111
   390 -18.55000 -19.99420   1.71300   0.13724   43.22830   0.22918   0.00100   389  390  391    111
   391 -18.45000 -19.99380   1.80700   0.13724   43.22830   0.22918   0.00100   390  391  392    111
   392 -18.35000 -19.99340   1.90100   0.13724   43.22830   0.22918   0.00100   391  392  393    111
   393 -18.25000 -19.99300   1.99500   0.13724   43.22830   0.22918   0.00100   392  393  394    111
   394 -18.15000 -19.99260   2.08900   0.13724   43.22830   0.22918   0.00100   393  394  395    111
   395 -18.05000 -19.99220   2.18300   0.13724   43.22830   0.22918   0.00100   394  395  396    111
   396 -17.95000 -19.99180   2.27700   0.13724   43.22830   0.22918   0.00100   395  396  397    111
   397 -17.85000 -19.99140   2.37100   0.13724   43.22830   0.22918   0.00100   396  397  398    111
   398 -17.75000 -19.99100   2.46500   0.13724   43.22830   0.22918   0.00100   397  398  399    111
   399 -17.65000 -19.99060   2.55900   0.13724   43.22830   0.22918   0.00100   398  399  400    111
   400 -17.55000 -19.99020   2.65300   0.13724   43.22830   0.22918   0.00100   399  400  401    111
   401 -17.52500 -19.99010   2.82500   0.25495   78.68998-179.77082   0.00100   400  401  402    112
   402 -17.57500 -19.99030   3.07500   0.25495   78.68998-179.77082   0.00100   401  402  403    112
   403 -17.62500 -19.99050   3.32500   0.25495   78.68998-179.77082   0.00100   402  403  404    112
   404 -17.67500 -19.99070   3.57500   0.25495   78.68998-179.77082   0.00100   403  404  405    112
   405 -17.72500 -19.99090   3.82500   0.25495   78.68998-179.77082   0.00100   404  405  406    112
   406 -17.77500 -19.99110   4.07500   0.25495   78.68998-179.77082   0.00100   405  406  407    112
   407 -17.82500 -19.99130   4.32500   0.25495   78.68998-179.77082   0.00100   406  407  408    112
   408 -17.87500 -19.99150   4.57500   0.25495   78.68998-179.77082   0.00100   407  408  409    112
   409 -17.92500 -19.99170   4.82500   0.25495   78.68998-179.77082   0.00100   408  409  410    112
   410 -17.97500 -19.99190   5.07500   0.25495   78.68998-179.77082   0.00100   409  410  411    112
   411 -18.02500 -19.99210   5.32500   0.25495   78.68998-179.77082   0.00100   410  411  412    112
   412 -18.07500 -19.99230   5.57500   0.25495   78.68998-179.77082   0.00100   411  412  413    112
   413 -18.12500 -19.99250   5.82500   0.25495   78.68998-179.77082   0.00100   412  413  414    112
   414 -18.17500 -19.99270   6.07500   0.25495   78.68998-179.77082   0.00100   413  414  415    112
   415 -18.22500 -19.99290   6.32500   0.25495   78.68998-179.77082   0.00100   414  415  416    112
   416 -18.27500 -19.99310   6.57500   0.25495   78.68998-179.77082   0.00100   415  416  417    112
   417 -18.32500 -19.99330   6.82500   0.25495   78.68998-179.77082   0.00100   416  417  418    112
   418 -18.37500 -19.99350   7.07500   0.25495   78.68998-179.77082   0.00100   417  418  419    112
   419 -18.42500 -19.99370   7.32500   0.25495   78.68998-179.77082   0.00100   418  419  420    112
   420 -18.47500 -19.99390   7.57500   0.25495   78.68998-179.77082   0.00100   419  420  421    112
   421 -18.52500 -19.99410   7.82500   0.25495   78.68998-179.77082   0.00100   420  421  422    112
   422 -18.57500 -19.99430   8.07500   0.25495   78.68998-179.77082   0.00100   421  422  423    112
   423 -18.62500 -19.99450   8.32500   0.25495   78.68998-179.77082   0.00100   422  423  424    112
   424 -18.67500 -19.99470   8.57500   0.25495   78.68998-179.77082   0.00100   423  424  425    112
   425 -18.72500 -19.99490   8.82500   0.25495   78.68998-179.77082   0.00100   424  425  426    112
   426 -18.77500 -19.99510   9.07500   0.25495   78.68998-179.77082   0.00100   425  426  427    112
   427 -18.82500 -19.99530   9.32500   0.25495   78.68998-179.77082   0.00100   426  427  428    112
   428 -18.87500 -19.99550   9.57500   0.25495   78.68998-179.77082   0.00100   427  428  429    112
   429 -18.92500 -19.99570   9.82500   0.25495   78.68998-179.77082   0.00100   428  429  430    112
   430 -18.97500 -19.99590  10.07500   0.25495   78.68998-179.77082   0.00100   429  430  431    112
   431 -19.02500 -19.99610  10.32500   0.25495   78.68998-179.77082   0.00100   430  431  432    112
   432 -19.07500 -19.99630  10.57500   0.25495   78.68998-179.77082   0.00100   431  432  433    112
   433 -19.12500 -19.99650  10.82500   0.25495   78.68998-179.77082   0.00100   432  433  434    112
   434 -19.17500 -19.99670  11.07500   0.25495   78.68998-179.77082   0.00100   433  434  435    112
   435 -19.22500 -19.99690  11.32500   0.25495   78.68998-179.77082   0.00100   434  435  436    112
   436 -19.27500 -19.99710  11.57500   0.25495   78.68998-179.77082   0.00100   435  436  437    112
   437 -19.32500 -19.99730  11.82500   0.25495   78.68998-179.77082   0.00100   436  437  438    112
   438 -19.37500 -19.99750  12.07500   0.25495   78.68998-179.77082   0.00100   437  438  439    112
   439 -19.42500 -19.99770  12.32500   0.25495   78.68998-179.77082   0.00100   438  439  440    112
   440 -19.47500 -19.99790  12.57500   0.25495   78.68998-179.77082   0.00100   439  440  441    112
   441 -19.52500 -19.99810  12.82500   0.25495   78.68998-179.77082   0.00100   440  441  442    112
   442 -19.57500 -19.99830  13.07500   0.25495   78.68998-179.77082   0.00100   441  442  443    112
   443 -19.62500 -19.99850  13.32500   0.25495   78.68998-179.77082   0.00100   442  443  444    112
   444 -19.67500 -19.99870  13.57500   0.25495   78.68998-179.77082   0.00100   443  444  445    112
   445 -19.72500 -19.99890  13.82500   0.25495   78.68998-179.77082   0.00100   444  445  446    112
   446 -19.77500 -19.99910  14.07500   0.25495   78.68998-179.77082   0.00100   445  446  447    112
   447 -19.82500 -19.99930  14.32500   0.25495   78.68998-179.77082   0.00100   446  447  448    112
   448 -19.87500 -19.99950  14.57500   0.25495   78.68998-179.77082   0.00100   447  448  449    112
   449 -19.92500 -19.99970  14.82500   0.25495   78.68998-179.77082   0.00100   448  449  450    112
   450 -19.97500 -19.99990  15.07500   0.25495   78.68998-179.77082   0.00100   449  450 -525    112
   451 -19.95520 -20.03520   0.39700   0.14772   39.52032 -38.15723   0.00100  -526  451  452    113
   452 -19.86560 -20.10560   0.49100   0.14772   39.52032 -38.15723   0.00100   451  452  453    113
   453 -19.77600 -20.17600   0.58500   0.14772   39.52032 -38.15723   0.00100   452  453  454    113
   454 -19.68640 -20.24640   0.67900   0.14772   39.52032 -38.15723   0.00100   453  454  455    113
   455 -19.59680 -20.31680   0.77300   0.14772   39.52032 -38.15723   0.00100   454  455  456    113
   456 -19.50720 -20.38720   0.86700   0.14772   39.52032 -38.15723   0.00100   455  456  457    113
   457 -19.41760 -20.45760   0.96100   0.14772   39.52032 -38.15723   0.00100   456  457  458    113
   458 -19.32800 -20.52800   1.05500   0.14772   39.52032 -38.15723   0.00100   457  458  459    113
   459 -19.23840 -20.59840   1.14900   0.14772   39.52032 -38.15723   0.00100   458  459  460    113
   460 -19.14880 -20.66880   1.24300   0.14772   39.52032 -38.15723   0.00100   459  460  461    113
   461 -19.05920 -20.73920   1.33700   0.14772   39.52032 -38.15723   0.00100   460  461  462    113
   462 -18.96960 -20.80960   1.43100   0.14772   39.52032 -38.15723   0.00100   461  462  463    113
   463 -18.88000 -20.88000   1.52500   0.14772   39.52032 -38.15723   0.00100   462  463  464    113
[...]
  8154  24.00350  25.56900   0.20000   0.29594    0.00000  54.32279   0.00100  8153 8154 8155    355
  8155  24.17610  25.80940   0.20000   0.29594    0.00000  54.32279   0.00100  8154 8155 8156    355
  8156  24.34870  26.04980   0.20000   0.29594    0.00000  54.32279   0.00100  8155 8156 8157    355
  8157  24.52130  26.29020   0.20000   0.29594    0.00000  54.32279   0.00100  8156 8157 8158    355
  8158  24.69390  26.53060   0.20000   0.29594    0.00000  54.32279   0.00100  8157 8158 8159    355
  8159  24.86650  26.77100   0.20000   0.29594    0.00000  54.32279   0.00100  8158 8159 8160    355
  8160  25.03910  27.01140   0.20000   0.29594    0.00000  54.32279   0.00100  8159 8160 8161    355
  8161  25.21170  27.25180   0.20000   0.29594    0.00000  54.32279   0.00100  8160 8161 8162    355
  8162  25.38430  27.49220   0.20000   0.29594    0.00000  54.32279   0.00100  8161 8162 8163    355
  8163  25.55690  27.73260   0.20000   0.29594    0.00000  54.32279   0.00100  8162 8163 8164    355
  8164  25.72950  27.97300   0.20000   0.29594    0.00000  54.32279   0.00100  8163 8164 8165    355
  8165  25.90210  28.21340   0.20000   0.29594    0.00000  54.32279   0.00100  8164 8165 8166    355
  8166  26.07470  28.45380   0.20000   0.29594    0.00000  54.32279   0.00100  8165 8166 8167    355
  8167  26.24730  28.69420   0.20000   0.29594    0.00000  54.32279   0.00100  8166 8167 8168    355
  8168  26.41990  28.93460   0.20000   0.29594    0.00000  54.32279   0.00100  8167 8168 8169    355
  8169  26.59250  29.17500   0.20000   0.29594    0.00000  54.32279   0.00100  8168 8169 8170    355
  8170  26.76510  29.41540   0.20000   0.29594    0.00000  54.32279   0.00100  8169 8170 8171    355
  8171  26.93770  29.65580   0.20000   0.29594    0.00000  54.32279   0.00100  8170 8171 8172    355
  8172  27.11030  29.89620   0.20000   0.29594    0.00000  54.32279   0.00100  8171 8172 8173    355
  8173  27.28290  30.13660   0.20000   0.29594    0.00000  54.32279   0.00100  8172 8173 8174    355
  8174  27.45550  30.37700   0.20000   0.29594    0.00000  54.32279   0.00100  8173 8174 8175    355
  8175  27.62810  30.61740   0.20000   0.29594    0.00000  54.32279   0.00100  8174 8175 8176    355
  8176  27.80070  30.85780   0.20000   0.29594    0.00000  54.32279   0.00100  8175 8176 8177    355
  8177  27.97330  31.09820   0.20000   0.29594    0.00000  54.32279   0.00100  8176 8177 8178    355
  8178  28.14590  31.33860   0.20000   0.29594    0.00000  54.32279   0.00100  8177 8178 8179    355
  8179  28.31850  31.57900   0.20000   0.29594    0.00000  54.32279   0.00100  8178 8179 8180    355
  8180  28.49110  31.81940   0.20000   0.29594    0.00000  54.32279   0.00100  8179 8180 8181    355
  8181  28.66370  32.05980   0.20000   0.29594    0.00000  54.32279   0.00100  8180 8181    0    355
  8182  20.02000  20.01500   0.20000   0.05000    0.00000  36.86990   0.00100 -8236 8182 8183    356
  8183  20.06000  20.04500   0.20000   0.05000    0.00000  36.86990   0.00100  8182 8183 8184    356
  8184  20.10000  20.07500   0.20000   0.05000    0.00000  36.86990   0.00100  8183 8184 8185    356
  8185  20.14000  20.10500   0.20000   0.05000    0.00000  36.86990   0.00100  8184 8185 8186    356
  8186  20.27910  20.23760   0.20000   0.33475    0.00000  44.63691   0.00100  8185 8186 8187    357
  8187  20.51730  20.47280   0.20000   0.33475    0.00000  44.63691   0.00100  8186 8187 8188    357
  8188  20.75550  20.70800   0.20000   0.33475    0.00000  44.63691   0.00100  8187 8188 8189    357
  8189  20.99370  20.94320   0.20000   0.33475    0.00000  44.63691   0.00100  8188 8189 8190    357
  8190  21.23190  21.17840   0.20000   0.33475    0.00000  44.63691   0.00100  8189 8190 8191    357
  8191  21.47010  21.41360   0.20000   0.33475    0.00000  44.63691   0.00100  8190 8191 8192    357
  8192  21.70830  21.64880   0.20000   0.33475    0.00000  44.63691   0.00100  8191 8192 8193    357
  8193  21.94650  21.88400   0.20000   0.33475    0.00000  44.63691   0.00100  8192 8193 8194    357
  8194  22.18470  22.11920   0.20000   0.33475    0.00000  44.63691   0.00100  8193 8194 8195    357
  8195  22.42290  22.35440   0.20000   0.33475    0.00000  44.63691   0.00100  8194 8195 8196    357
  8196  22.66110  22.58960   0.20000   0.33475    0.00000  44.63691   0.00100  8195 8196 8197    357
  8197  22.89930  22.82480   0.20000   0.33475    0.00000  44.63691   0.00100  8196 8197 8198    357
  8198  23.13750  23.06000   0.20000   0.33475    0.00000  44.63691   0.00100  8197 8198 8199    357
  8199  23.37570  23.29520   0.20000   0.33475    0.00000  44.63691   0.00100  8198 8199 8200    357
  8200  23.61390  23.53040   0.20000   0.33475    0.00000  44.63691   0.00100  8199 8200 8201    357
  8201  23.85210  23.76560   0.20000   0.33475    0.00000  44.63691   0.00100  8200 8201 8202    357
  8202  24.09030  24.00080   0.20000   0.33475    0.00000  44.63691   0.00100  8201 8202 8203    357
  8203  24.32850  24.23600   0.20000   0.33475    0.00000  44.63691   0.00100  8202 8203 8204    357
  8204  24.56670  24.47120   0.20000   0.33475    0.00000  44.63691   0.00100  8203 8204 8205    357
  8205  24.80490  24.70640   0.20000   0.33475    0.00000  44.63691   0.00100  8204 8205 8206    357
  8206  25.04310  24.94160   0.20000   0.33475    0.00000  44.63691   0.00100  8205 8206 8207    357
  8207  25.28130  25.17680   0.20000   0.33475    0.00000  44.63691   0.00100  8206 8207 8208    357
  8208  25.51950  25.41200   0.20000   0.33475    0.00000  44.63691   0.00100  8207 8208 8209    357
  8209  25.75770  25.64720   0.20000   0.33475    0.00000  44.63691   0.00100  8208 8209 8210    357
  8210  25.99590  25.88240   0.20000   0.33475    0.00000  44.63691   0.00100  8209 8210 8211    357
  8211  26.23410  26.11760   0.20000   0.33475    0.00000  44.63691   0.00100  8210 8211 8212    357
  8212  26.47230  26.35280   0.20000   0.33475    0.00000  44.63691   0.00100  8211 8212 8213    357
  8213  26.71050  26.58800   0.20000   0.33475    0.00000  44.63691   0.00100  8212 8213 8214    357
  8214  26.94870  26.82320   0.20000   0.33475    0.00000  44.63691   0.00100  8213 8214 8215    357
  8215  27.18690  27.05840   0.20000   0.33475    0.00000  44.63691   0.00100  8214 8215 8216    357
  8216  27.42510  27.29360   0.20000   0.33475    0.00000  44.63691   0.00100  8215 8216 8217    357
  8217  27.66330  27.52880   0.20000   0.33475    0.00000  44.63691   0.00100  8216 8217 8218    357
  8218  27.90150  27.76400   0.20000   0.33475    0.00000  44.63691   0.00100  8217 8218 8219    357
  8219  28.13970  27.99920   0.20000   0.33475    0.00000  44.63691   0.00100  8218 8219 8220    357
  8220  28.37790  28.23440   0.20000   0.33475    0.00000  44.63691   0.00100  8219 8220 8221    357
  8221  28.61610  28.46960   0.20000   0.33475    0.00000  44.63691   0.00100  8220 8221 8222    357
  8222  28.85430  28.70480   0.20000   0.33475    0.00000  44.63691   0.00100  8221 8222 8223    357
  8223  29.09250  28.94000   0.20000   0.33475    0.00000  44.63691   0.00100  8222 8223 8224    357
  8224  29.33070  29.17520   0.20000   0.33475    0.00000  44.63691   0.00100  8223 8224 8225    357
  8225  29.56890  29.41040   0.20000   0.33475    0.00000  44.63691   0.00100  8224 8225 8226    357
  8226  29.80710  29.64560   0.20000   0.33475    0.00000  44.63691   0.00100  8225 8226 8227    357
  8227  30.04530  29.88080   0.20000   0.33475    0.00000  44.63691   0.00100  8226 8227 8228    357
  8228  30.28350  30.11600   0.20000   0.33475    0.00000  44.63691   0.00100  8227 8228 8229    357
  8229  30.52170  30.35120   0.20000   0.33475    0.00000  44.63691   0.00100  8228 8229 8230    357
  8230  30.75990  30.58640   0.20000   0.33475    0.00000  44.63691   0.00100  8229 8230 8231    357
  8231  30.99810  30.82160   0.20000   0.33475    0.00000  44.63691   0.00100  8230 8231 8232    357
  8232  31.23630  31.05680   0.20000   0.33475    0.00000  44.63691   0.00100  8231 8232 8233    357
  8233  31.47450  31.29200   0.20000   0.33475    0.00000  44.63691   0.00100  8232 8233 8234    357
  8234  31.71270  31.52720   0.20000   0.33475    0.00000  44.63691   0.00100  8233 8234 8235    357
  8235  31.95090  31.76240   0.20000   0.33475    0.00000  44.63691   0.00100  8234 8235    0    357
  8236  20.02375  20.00750   0.20000   0.04981    0.00000  17.52557   0.00100 -8290 8236 8237    358
  8237  20.07125  20.02250   0.20000   0.04981    0.00000  17.52557   0.00100  8236 8237 8238    358
  8238  20.11875  20.03750   0.20000   0.04981    0.00000  17.52557   0.00100  8237 8238 8239    358
  8239  20.16625  20.05250   0.20000   0.04981    0.00000  17.52557   0.00100  8238 8239 8240    358
  8240  20.33050  20.10650   0.20000   0.29599    0.00000  18.31252   0.00100  8239 8240 8241    359
  8241  20.61150  20.19950   0.20000   0.29599    0.00000  18.31252   0.00100  8240 8241 8242    359
  8242  20.89250  20.29250   0.20000   0.29599    0.00000  18.31252   0.00100  8241 8242 8243    359
  8243  21.17350  20.38550   0.20000   0.29599    0.00000  18.31252   0.00100  8242 8243 8244    359
  8244  21.45450  20.47850   0.20000   0.29599    0.00000  18.31252   0.00100  8243 8244 8245    359
  8245  21.73550  20.57150   0.20000   0.29599    0.00000  18.31252   0.00100  8244 8245 8246    359
  8246  22.01650  20.66450   0.20000   0.29599    0.00000  18.31252   0.00100  8245 8246 8247    359
  8247  22.29750  20.75750   0.20000   0.29599    0.00000  18.31252   0.00100  8246 8247 8248    359
  8248  22.57850  20.85050   0.20000   0.29599    0.00000  18.31252   0.00100  8247 8248 8249    359
  8249  22.85950  20.94350   0.20000   0.29599    0.00000  18.31252   0.00100  8248 8249 8250    359
  8250  23.14050  21.03650   0.20000   0.29599    0.00000  18.31252   0.00100  8249 8250 8251    359
  8251  23.42150  21.12950   0.20000   0.29599    0.00000  18.31252   0.00100  8250 8251 8252    359
  8252  23.70250  21.22250   0.20000   0.29599    0.00000  18.31252   0.00100  8251 8252 8253    359
  8253  23.98350  21.31550   0.20000   0.29599    0.00000  18.31252   0.00100  8252 8253 8254    359
  8254  24.26450  21.40850   0.20000   0.29599    0.00000  18.31252   0.00100  8253 8254 8255    359
  8255  24.54550  21.50150   0.20000   0.29599    0.00000  18.31252   0.00100  8254 8255 8256    359
  8256  24.82650  21.59450   0.20000   0.29599    0.00000  18.31252   0.00100  8255 8256 8257    359
  8257  25.10750  21.68750   0.20000   0.29599    0.00000  18.31252   0.00100  8256 8257 8258    359
  8258  25.38850  21.78050   0.20000   0.29599    0.00000  18.31252   0.00100  8257 8258 8259    359
  8259  25.66950  21.87350   0.20000   0.29599    0.00000  18.31252   0.00100  8258 8259 8260    359
  8260  25.95050  21.96650   0.20000   0.29599    0.00000  18.31252   0.00100  8259 8260 8261    359
  8261  26.23150  22.05950   0.20000   0.29599    0.00000  18.31252   0.00100  8260 8261 8262    359
  8262  26.51250  22.15250   0.20000   0.29599    0.00000  18.31252   0.00100  8261 8262 8263    359
  8263  26.79350  22.24550   0.20000   0.29599    0.00000  18.31252   0.00100  8262 8263 8264    359
  8264  27.07450  22.33850   0.20000   0.29599    0.00000  18.31252   0.00100  8263 8264 8265    359
  8265  27.35550  22.43150   0.20000   0.29599    0.00000  18.31252   0.00100  8264 8265 8266    359
  8266  27.63650  22.52450   0.20000   0.29599    0.00000  18.31252   0.00100  8265 8266 8267    359
  8267  27.91750  22.61750   0.20000   0.29599    0.00000  18.31252   0.00100  8266 8267 8268    359
  8268  28.19850  22.71050   0.20000   0.29599    0.00000  18.31252   0.00100  8267 8268 8269    359
  8269  28.47950  22.80350   0.20000   0.29599    0.00000  18.31252   0.00100  8268 8269 8270    359
  8270  28.76050  22.89650   0.20000   0.29599    0.00000  18.31252   0.00100  8269 8270 8271    359
  8271  29.04150  22.98950   0.20000   0.29599    0.00000  18.31252   0.00100  8270 8271 8272    359
  8272  29.32250  23.08250   0.20000   0.29599    0.00000  18.31252   0.00100  8271 8272 8273    359
  8273  29.60350  23.17550   0.20000   0.29599    0.00000  18.31252   0.00100  8272 8273 8274    359
  8274  29.88450  23.26850   0.20000   0.29599    0.00000  18.31252   0.00100  8273 8274 8275    359
  8275  30.16550  23.36150   0.20000   0.29599    0.00000  18.31252   0.00100  8274 8275 8276    359
  8276  30.44650  23.45450   0.20000   0.29599    0.00000  18.31252   0.00100  8275 8276 8277    359
  8277  30.72750  23.54750   0.20000   0.29599    0.00000  18.31252   0.00100  8276 8277 8278    359
  8278  31.00850  23.64050   0.20000   0.29599    0.00000  18.31252   0.00100  8277 8278 8279    359
  8279  31.28950  23.73350   0.20000   0.29599    0.00000  18.31252   0.00100  8278 8279 8280    359
  8280  31.57050  23.82650   0.20000   0.29599    0.00000  18.31252   0.00100  8279 8280 8281    359
  8281  31.85150  23.91950   0.20000   0.29599    0.00000  18.31252   0.00100  8280 8281 8282    359
  8282  32.13250  24.01250   0.20000   0.29599    0.00000  18.31252   0.00100  8281 8282 8283    359
  8283  32.41350  24.10550   0.20000   0.29599    0.00000  18.31252   0.00100  8282 8283 8284    359
  8284  32.69450  24.19850   0.20000   0.29599    0.00000  18.31252   0.00100  8283 8284 8285    359
  8285  32.97550  24.29150   0.20000   0.29599    0.00000  18.31252   0.00100  8284 8285 8286    359
  8286  33.25650  24.38450   0.20000   0.29599    0.00000  18.31252   0.00100  8285 8286 8287    359
  8287  33.53750  24.47750   0.20000   0.29599    0.00000  18.31252   0.00100  8286 8287 8288    359
  8288  33.81850  24.57050   0.20000   0.29599    0.00000  18.31252   0.00100  8287 8288 8289    359
  8289  34.09950  24.66350   0.20000   0.29599    0.00000  18.31252   0.00100  8288 8289    0    359
  8290  20.02500  20.00000   0.20000   0.05000    0.00000   0.00000   0.00100 -8017 8290 8291    360
  8291  20.07500  20.00000   0.20000   0.05000    0.00000   0.00000   0.00100  8290 8291 8292    360
  8292  20.12500  20.00000   0.20000   0.05000    0.00000   0.00000   0.00100  8291 8292 8293    360
  8293  20.17500  20.00000   0.20000   0.05000    0.00000   0.00000   0.00100  8292 8293 8294    360
  8294  20.34800  20.00080   0.20000   0.29600    0.00000   0.30970   0.00100  8293 8294 8295    361
  8295  20.64400  20.00240   0.20000   0.29600    0.00000   0.30970   0.00100  8294 8295 8296    361
  8296  20.94000  20.00400   0.20000   0.29600    0.00000   0.30970   0.00100  8295 8296 8297    361
  8297  21.23600  20.00560   0.20000   0.29600    0.00000   0.30970   0.00100  8296 8297 8298    361
  8298  21.53200  20.00720   0.20000   0.29600    0.00000   0.30970   0.00100  8297 8298 8299    361
  8299  21.82800  20.00880   0.20000   0.29600    0.00000   0.30970   0.00100  8298 8299 8300    361
  8300  22.12400  20.01040   0.20000   0.29600    0.00000   0.30970   0.00100  8299 8300 8301    361
  8301  22.42000  20.01200   0.20000   0.29600    0.00000   0.30970   0.00100  8300 8301 8302    361
  8302  22.71600  20.01360   0.20000   0.29600    0.00000   0.30970   0.00100  8301 8302 8303    361
  8303  23.01200  20.01520   0.20000   0.29600    0.00000   0.30970   0.00100  8302 8303 8304    361
  8304  23.30800  20.01680   0.20000   0.29600    0.00000   0.30970   0.00100  8303 8304 8305    361
  8305  23.60400  20.01840   0.20000   0.29600    0.00000   0.30970   0.00100  8304 8305 8306    361
  8306  23.90000  20.02000   0.20000   0.29600    0.00000   0.30970   0.00100  8305 8306 8307    361
  8307  24.19600  20.02160   0.20000   0.29600    0.00000   0.30970   0.00100  8306 8307 8308    361
  8308  24.49200  20.02320   0.20000   0.29600    0.00000   0.30970   0.00100  8307 8308 8309    361
  8309  24.78800  20.02480   0.20000   0.29600    0.00000   0.30970   0.00100  8308 8309 8310    361
  8310  25.08400  20.02640   0.20000   0.29600    0.00000   0.30970   0.00100  8309 8310 8311    361
  8311  25.38000  20.02800   0.20000   0.29600    0.00000   0.30970   0.00100  8310 8311 8312    361
  8312  25.67600  20.02960   0.20000   0.29600    0.00000   0.30970   0.00100  8311 8312 8313    361
  8313  25.97200  20.03120   0.20000   0.29600    0.00000   0.30970   0.00100  8312 8313 8314    361
  8314  26.26800  20.03280   0.20000   0.29600    0.00000   0.30970   0.00100  8313 8314 8315    361
  8315  26.56400  20.03440   0.20000   0.29600    0.00000   0.30970   0.00100  8314 8315 8316    361
  8316  26.86000  20.03600   0.20000   0.29600    0.00000   0.30970   0.00100  8315 8316 8317    361
  8317  27.15600  20.03760   0.20000   0.29600    0.00000   0.30970   0.00100  8316 8317 8318    361
  8318  27.45200  20.03920   0.20000   0.29600    0.00000   0.30970   0.00100  8317 8318 8319    361
  8319  27.74800  20.04080   0.20000   0.29600    0.00000   0.30970   0.00100  8318 8319 8320    361
  8320  28.04400  20.04240   0.20000   0.29600    0.00000   0.30970   0.00100  8319 8320 8321    361
  8321  28.34000  20.04400   0.20000   0.29600    0.00000   0.30970   0.00100  8320 8321 8322    361
  8322  28.63600  20.04560   0.20000   0.29600    0.00000   0.30970   0.00100  8321 8322 8323    361
  8323  28.93200  20.04720   0.20000   0.29600    0.00000   0.30970   0.00100  8322 8323 8324    361
  8324  29.22800  20.04880   0.20000   0.29600    0.00000   0.30970   0.00100  8323 8324 8325    361
  8325  29.52400  20.05040   0.20000   0.29600    0.00000   0.30970   0.00100  8324 8325 8326    361
  8326  29.82000  20.05200   0.20000   0.29600    0.00000   0.30970   0.00100  8325 8326 8327    361
  8327  30.11600  20.05360   0.20000   0.29600    0.00000   0.30970   0.00100  8326 8327 8328    361
  8328  30.41200  20.05520   0.20000   0.29600    0.00000   0.30970   0.00100  8327 8328 8329    361
  8329  30.70800  20.05680   0.20000   0.29600    0.00000   0.30970   0.00100  8328 8329 8330    361
  8330  31.00400  20.05840   0.20000   0.29600    0.00000   0.30970   0.00100  8329 8330 8331    361
  8331  31.30000  20.06000   0.20000   0.29600    0.00000   0.30970   0.00100  8330 8331 8332    361
  8332  31.59600  20.06160   0.20000   0.29600    0.00000   0.30970   0.00100  8331 8332 8333    361
  8333  31.89200  20.06320   0.20000   0.29600    0.00000   0.30970   0.00100  8332 8333 8334    361
  8334  32.18800  20.06480   0.20000   0.29600    0.00000   0.30970   0.00100  8333 8334 8335    361
  8335  32.48400  20.06640   0.20000   0.29600    0.00000   0.30970   0.00100  8334 8335 8336    361
  8336  32.78000  20.06800   0.20000   0.29600    0.00000   0.30970   0.00100  8335 8336 8337    361
  8337  33.07600  20.06960   0.20000   0.29600    0.00000   0.30970   0.00100  8336 8337 8338    361
  8338  33.37200  20.07120   0.20000   0.29600    0.00000   0.30970   0.00100  8337 8338 8339    361
  8339  33.66800  20.07280   0.20000   0.29600    0.00000   0.30970   0.00100  8338 8339 8340    361
  8340  33.96400  20.07440   0.20000   0.29600    0.00000   0.30970   0.00100  8339 8340 8341    361
  8341  34.26000  20.07600   0.20000   0.29600    0.00000   0.30970   0.00100  8340 8341 8342    361
  8342  34.55600  20.07760   0.20000   0.29600    0.00000   0.30970   0.00100  8341 8342 8343    361
  8343  34.85200  20.07920   0.20000   0.29600    0.00000   0.30970   0.00100  8342 8343    0    361






 ***** DATA CARD NO.  1   GN   2     0     0     0  1.00000E+01  1.00000E-02  0.00000E+00  0.00000E+00  0.00000E+00  0.00000E+00
 ***** DATA CARD NO.  2   FR   0     0     0     0  5.00000E+00  0.00000E+00  0.00000E+00  0.00000E+00  0.00000E+00  0.00000E+00
 ***** DATA CARD NO.  3   EX   0   117     2     0  1.00000E-09  0.00000E+00  0.00000E+00  0.00000E+00  0.00000E+00  0.00000E+00
 ***** DATA CARD NO.  4   EX   0   146     2     0  1.00000E-09  0.00000E+00  0.00000E+00  0.00000E+00  0.00000E+00  0.00000E+00
 ***** DATA CARD NO.  5   EX   0   175     2     0  1.00000E+00  0.00000E+00  0.00000E+00  0.00000E+00  0.00000E+00  0.00000E+00
 ***** DATA CARD NO.  6   EX   0   204     2     0  1.00000E-09  0.00000E+00  0.00000E+00  0.000