1



                                 *********************************************

                                    NUMERICAL ELECTROMAGNETICS CODE (NEC-2D)

                                 *********************************************




                                     - - - - COMMENTS - - - -


                                                                                                     
                                                                                                     




                                 - - - STRUCTURE SPECIFICATION - - -

                                     COORDINATES MUST BE INPUT IN
                                     METERS OR BE SCALED TO METERS
                                     BEFORE STRUCTURE INPUT IS ENDED


  WIRE                                                                               NO. OF    FIRST  LAST     TAG
  NO.        X1         Y1         Z1          X2         Y2         Z2      RADIUS   SEG.     SEG.   SEG.     NO.
     1   -7.50000   -5.00000   -5.00000    -7.50000   -5.00000    5.00000    0.00100     20        1    20     101
     2   -2.50000   -5.00000   -5.00000    -2.50000   -5.00000    5.00000    0.00100     20       21    40     102
     3    2.50000   -5.00000   -5.00000     2.50000   -5.00000    5.00000    0.00100     20       41    60     103
     4    7.50000   -5.00000   -5.00000     7.50000   -5.00000    5.00000    0.00100     20       61    80     104
     5   -7.50000    0.00000   -5.00000    -7.50000    0.00000    5.00000    0.00100     20       81   100     201
     6   -2.50000    0.00000   -5.00000    -2.50000    0.00000    5.00000    0.00100     20      101   120     202
     7    2.50000    0.00000   -5.00000     2.50000    0.00000    5.00000    0.00100     20      121   140     203
     8    7.50000    0.00000   -5.00000     7.50000    0.00000    5.00000    0.00100     20      141   160     204
     9   -7.50000    5.00000   -5.00000    -7.50000    5.00000    5.00000    0.00100     20      161   180     301
    10   -2.50000    5.00000   -5.00000    -2.50000    5.00000    5.00000    0.00100     20      181   200     302
    11    2.50000    5.00000   -5.00000     2.50000    5.00000    5.00000    0.00100     20      201   220     303
    12    7.50000    5.00000   -5.00000     7.50000    5.00000    5.00000    0.00100     20      221   240     304

   TOTAL SEGMENTS USED=  240     NO. SEG. IN A SYMMETRIC CELL=  240     SYMMETRY FLAG=  0


         - MULTIPLE WIRE JUNCTIONS -
 JUNCTION    SEGMENTS  (- FOR END 1, + FOR END 2)
  NONE




                                 - - - - SEGMENTATION DATA - - - -

                                        COORDINATES IN METERS

                         I+ AND I- INDICATE THE SEGMENTS BEFORE AND AFTER I


  SEG.   COORDINATES OF SEG. CENTER     SEG.     ORIENTATION ANGLES    WIRE    CONNECTION DATA   TAG
  NO.       X         Y         Z       LENGTH     ALPHA     BETA      RADIUS    I-   I    I+    NO.
     1  -7.50000  -5.00000  -4.75000   0.50000   90.00000   0.00000   0.00100     0    1    2    101
     2  -7.50000  -5.00000  -4.25000   0.50000   90.00000   0.00000   0.00100     1    2    3    101
     3  -7.50000  -5.00000  -3.75000   0.50000   90.00000   0.00000   0.00100     2    3    4    101
     4  -7.50000  -5.00000  -3.25000   0.50000   90.00000   0.00000   0.00100     3    4    5    101
     5  -7.50000  -5.00000  -2.75000   0.50000   90.00000   0.00000   0.00100     4    5    6    101
     6  -7.50000  -5.00000  -2.25000   0.50000   90.00000   0.00000   0.00100     5    6    7    101
     7  -7.50000  -5.00000  -1.75000   0.50000   90.00000   0.00000   0.00100     6    7    8    101
     8  -7.50000  -5.00000  -1.25000   0.50000   90.00000   0.00000   0.00100     7    8    9    101
     9  -7.50000  -5.00000  -0.75000   0.50000   90.00000   0.00000   0.00100     8    9   10    101
    10  -7.50000  -5.00000  -0.25000   0.50000   90.00000   0.00000   0.00100     9   10   11    101
    11  -7.50000  -5.00000   0.25000   0.50000   90.00000   0.00000   0.00100    10   11   12    101
    12  -7.50000  -5.00000   0.75000   0.50000   90.00000   0.00000   0.00100    11   12   13    101
    13  -7.50000  -5.00000   1.25000   0.50000   90.00000   0.00000   0.00100    12   13   14    101
    14  -7.50000  -5.00000   1.75000   0.50000   90.00000   0.00000   0.00100    13   14   15    101
    15  -7.50000  -5.00000   2.25000   0.50000   90.00000   0.00000   0.00100    14   15   16    101
    16  -7.50000  -5.00000   2.75000   0.50000   90.00000   0.00000   0.00100    15   16   17    101
    17  -7.50000  -5.00000   3.25000   0.50000   90.00000   0.00000   0.00100    16   17   18    101
    18  -7.50000  -5.00000   3.75000   0.50000   90.00000   0.00000   0.00100    17   18   19    101
    19  -7.50000  -5.00000   4.25000   0.50000   90.00000   0.00000   0.00100    18   19   20    101
    20  -7.50000  -5.00000   4.75000   0.50000   90.00000   0.00000   0.00100    19   20    0    101
    21  -2.50000  -5.00000  -4.75000   0.50000   90.00000   0.00000   0.00100     0   21   22    102
    22  -2.50000  -5.00000  -4.25000   0.50000   90.00000   0.00000   0.00100    21   22   23    102
    23  -2.50000  -5.00000  -3.75000   0.50000   90.00000   0.00000   0.00100    22   23   24    102
    24  -2.50000  -5.00000  -3.25000   0.50000   90.00000   0.00000   0.00100    23   24   25    102
    25  -2.50000  -5.00000  -2.75000   0.50000   90.00000   0.00000   0.00100    24   25   26    102
    26  -2.50000  -5.00000  -2.25000   0.50000   90.00000   0.00000   0.00100    25   26   27    102
    27  -2.50000  -5.00000  -1.75000   0.50000   90.00000   0.00000   0.00100    26   27   28    102
    28  -2.50000  -5.00000  -1.25000   0.50000   90.00000   0.00000   0.00100    27   28   29    102
    29  -2.50000  -5.00000  -0.75000   0.50000   90.00000   0.00000   0.00100    28   29   30    102
    30  -2.50000  -5.00000  -0.25000   0.50000   90.00000   0.00000   0.00100    29   30   31    102
    31  -2.50000  -5.00000   0.25000   0.50000   90.00000   0.00000   0.00100    30   31   32    102
    32  -2.50000  -5.00000   0.75000   0.50000   90.00000   0.00000   0.00100    31   32   33    102
    33  -2.50000  -5.00000   1.25000   0.50000   90.00000   0.00000   0.00100    32   33   34    102
    34  -2.50000  -5.00000   1.75000   0.50000   90.00000   0.00000   0.00100    33   34   35    102
    35  -2.50000  -5.00000   2.25000   0.50000   90.00000   0.00000   0.00100    34   35   36    102
    36  -2.50000  -5.00000   2.75000   0.50000   90.00000   0.00000   0.00100    35   36   37    102
    37  -2.50000  -5.00000   3.25000   0.50000   90.00000   0.00000   0.00100    36   37   38    102
    38  -2.50000  -5.00000   3.75000   0.50000   90.00000   0.00000   0.00100    37   38   39    102
    39  -2.50000  -5.00000   4.25000   0.50000   90.00000   0.00000   0.00100    38   39   40    102
    40  -2.50000  -5.00000   4.75000   0.50000   90.00000   0.00000   0.00100    39   40    0    102
    41   2.50000  -5.00000  -4.75000   0.50000   90.00000   0.00000   0.00100     0   41   42    103
    42   2.50000  -5.00000  -4.25000   0.50000   90.00000   0.00000   0.00100    41   42   43    103
    43   2.50000  -5.00000  -3.75000   0.50000   90.00000   0.00000   0.00100    42   43   44    103
    44   2.50000  -5.00000  -3.25000   0.50000   90.00000   0.00000   0.00100    43   44   45    103
    45   2.50000  -5.00000  -2.75000   0.50000   90.00000   0.00000   0.00100    44   45   46    103
    46   2.50000  -5.00000  -2.25000   0.50000   90.00000   0.00000   0.00100    45   46   47    103
    47   2.50000  -5.00000  -1.75000   0.50000   90.00000   0.00000   0.00100    46   47   48    103
    48   2.50000  -5.00000  -1.25000   0.50000   90.00000   0.00000   0.00100    47   48   49    103
    49   2.50000  -5.00000  -0.75000   0.50000   90.00000   0.00000   0.00100    48   49   50    103
    50   2.50000  -5.00000  -0.25000   0.50000   90.00000   0.00000   0.00100    49   50   51    103
    51   2.50000  -5.00000   0.25000   0.50000   90.00000   0.00000   0.00100    50   51   52    103
    52   2.50000  -5.00000   0.75000   0.50000   90.00000   0.00000   0.00100    51   52   53    103
    53   2.50000  -5.00000   1.25000   0.50000   90.00000   0.00000   0.00100    52   53   54    103
    54   2.50000  -5.00000   1.75000   0.50000   90.00000   0.00000   0.00100    53   54   55    103
    55   2.50000  -5.00000   2.25000   0.50000   90.00000   0.00000   0.00100    54   55   56    103
    56   2.50000  -5.00000   2.75000   0.50000   90.00000   0.00000   0.00100    55   56   57    103
    57   2.50000  -5.00000   3.25000   0.50000   90.00000   0.00000   0.00100    56   57   58    103
    58   2.50000  -5.00000   3.75000   0.50000   90.00000   0.00000   0.00100    57   58   59    103
    59   2.50000  -5.00000   4.25000   0.50000   90.00000   0.00000   0.00100    58   59   60    103
    60   2.50000  -5.00000   4.75000   0.50000   90.00000   0.00000   0.00100    59   60    0    103
    61   7.50000  -5.00000  -4.75000   0.50000   90.00000   0.00000   0.00100     0   61   62    104
    62   7.50000  -5.00000  -4.25000   0.50000   90.00000   0.00000   0.00100    61   62   63    104
    63   7.50000  -5.00000  -3.75000   0.50000   90.00000   0.00000   0.00100    62   63   64    104
    64   7.50000  -5.00000  -3.25000   0.50000   90.00000   0.00000   0.00100    63   64   65    104
    65   7.50000  -5.00000  -2.75000   0.50000   90.00000   0.00000   0.00100    64   65   66    104
    66   7.50000  -5.00000  -2.25000   0.50000   90.00000   0.00000   0.00100    65   66   67    104
    67   7.50000  -5.00000  -1.75000   0.50000   90.00000   0.00000   0.00100    66   67   68    104
    68   7.50000  -5.00000  -1.25000   0.50000   90.00000   0.00000   0.00100    67   68   69    104
    69   7.50000  -5.00000  -0.75000   0.50000   90.00000   0.00000   0.00100    68   69   70    104
    70   7.50000  -5.00000  -0.25000   0.50000   90.00000   0.00000   0.00100    69   70   71    104
    71   7.50000  -5.00000   0.25000   0.50000   90.00000   0.00000   0.00100    70   71   72    104
    72   7.50000  -5.00000   0.75000   0.50000   90.00000   0.00000   0.00100    71   72   73    104
    73   7.50000  -5.00000   1.25000   0.50000   90.00000   0.00000   0.00100    72   73   74    104
    74   7.50000  -5.00000   1.75000   0.50000   90.00000   0.00000   0.00100    73   74   75    104
    75   7.50000  -5.00000   2.25000   0.50000   90.00000   0.00000   0.00100    74   75   76    104
    76   7.50000  -5.00000   2.75000   0.50000   90.00000   0.00000   0.00100    75   76   77    104
    77   7.50000  -5.00000   3.25000   0.50000   90.00000   0.00000   0.00100    76   77   78    104
    78   7.50000  -5.00000   3.75000   0.50000   90.00000   0.00000   0.00100    77   78   79    104
    79   7.50000  -5.00000   4.25000   0.50000   90.00000   0.00000   0.00100    78   79   80    104
    80   7.50000  -5.00000   4.75000   0.50000   90.00000   0.00000   0.00100    79   80    0    104
    81  -7.50000   0.00000  -4.75000   0.50000   90.00000   0.00000   0.00100     0   81   82    201
    82  -7.50000   0.00000  -4.25000   0.50000   90.00000   0.00000   0.00100    81   82   83    201
    83  -7.50000   0.00000  -3.75000   0.50000   90.00000   0.00000   0.00100    82   83   84    201
    84  -7.50000   0.00000  -3.25000   0.50000   90.00000   0.00000   0.00100    83   84   85    201
    85  -7.50000   0.00000  -2.75000   0.50000   90.00000   0.00000   0.00100    84   85   86    201
    86  -7.50000   0.00000  -2.25000   0.50000   90.00000   0.00000   0.00100    85   86   87    201
    87  -7.50000   0.00000  -1.75000   0.50000   90.00000   0.00000   0.00100    86   87   88    201
    88  -7.50000   0.00000  -1.25000   0.50000   90.00000   0.00000   0.00100    87   88   89    201
    89  -7.50000   0.00000  -0.75000   0.50000   90.00000   0.00000   0.00100    88   89   90    201
    90  -7.50000   0.00000  -0.25000   0.50000   90.00000   0.00000   0.00100    89   90   91    201
    91  -7.50000   0.00000   0.25000   0.50000   90.00000   0.00000   0.00100    90   91   92    201
    92  -7.50000   0.00000   0.75000   0.50000   90.00000   0.00000   0.00100    91   92   93    201
    93  -7.50000   0.00000   1.25000   0.50000   90.00000   0.00000   0.00100    92   93   94    201
    94  -7.50000   0.00000   1.75000   0.50000   90.00000   0.00000   0.00100    93   94   95    201
    95  -7.50000   0.00000   2.25000   0.50000   90.00000   0.00000   0.00100    94   95   96    201
    96  -7.50000   0.00000   2.75000   0.50000   90.00000   0.00000   0.00100    95   96   97    201
    97  -7.50000   0.00000   3.25000   0.50000   90.00000   0.00000   0.00100    96   97   98    201
    98  -7.50000   0.00000   3.75000   0.50000   90.00000   0.00000   0.00100    97   98   99    201
    99  -7.50000   0.00000   4.25000   0.50000   90.00000   0.00000   0.00100    98   99  100    201
   100  -7.50000   0.00000   4.75000   0.50000   90.00000   0.00000   0.00100    99  100    0    201
   101  -2.50000   0.00000  -4.75000   0.50000   90.00000   0.00000   0.00100     0  101  102    202
   102  -2.50000   0.00000  -4.25000   0.50000   90.00000   0.00000   0.00100   101  102  103    202
   103  -2.50000   0.00000  -3.75000   0.50000   90.00000   0.00000   0.00100   102  103  104    202
   104  -2.50000   0.00000  -3.25000   0.50000   90.00000   0.00000   0.00100   103  104  105    202
   105  -2.50000   0.00000  -2.75000   0.50000   90.00000   0.00000   0.00100   104  105  106    202
   106  -2.50000   0.00000  -2.25000   0.50000   90.00000   0.00000   0.00100   105  106  107    202
   107  -2.50000   0.00000  -1.75000   0.50000   90.00000   0.00000   0.00100   106  107  108    202
   108  -2.50000   0.00000  -1.25000   0.50000   90.00000   0.00000   0.00100   107  108  109    202
   109  -2.50000   0.00000  -0.75000   0.50000   90.00000   0.00000   0.00100   108  109  110    202
   110  -2.50000   0.00000  -0.25000   0.50000   90.00000   0.00000   0.00100   109  110  111    202
   111  -2.50000   0.00000   0.25000   0.50000   90.00000   0.00000   0.00100   110  111  112    202
   112  -2.50000   0.00000   0.75000   0.50000   90.00000   0.00000   0.00100   111  112  113    202
   113  -2.50000   0.00000   1.25000   0.50000   90.00000   0.00000   0.00100   112  113  114    202
   114  -2.50000   0.00000   1.75000   0.50000   90.00000   0.00000   0.00100   113  114  115    202
   115  -2.50000   0.00000   2.25000   0.50000   90.00000   0.00000   0.00100   114  115  116    202
   116  -2.50000   0.00000   2.75000   0.50000   90.00000   0.00000   0.00100   115  116  117    202
   117  -2.50000   0.00000   3.25000   0.50000   90.00000   0.00000   0.00100   116  117  118    202
   118  -2.50000   0.00000   3.75000   0.50000   90.00000   0.00000   0.00100   117  118  119    202
   119  -2.50000   0.00000   4.25000   0.50000   90.00000   0.00000   0.00100   118  119  120    202
   120  -2.50000   0.00000   4.75000   0.50000   90.00000   0.00000   0.00100   119  120    0    202
   121   2.50000   0.00000  -4.75000   0.50000   90.00000   0.00000   0.00100     0  121  122    203
   122   2.50000   0.00000  -4.25000   0.50000   90.00000   0.00000   0.00100   121  122  123    203
   123   2.50000   0.00000  -3.75000   0.50000   90.00000   0.00000   0.00100   122  123  124    203
   124   2.50000   0.00000  -3.25000   0.50000   90.00000   0.00000   0.00100   123  124  125    203
   125   2.50000   0.00000  -2.75000   0.50000   90.00000   0.00000   0.00100   124  125  126    203
   126   2.50000   0.00000  -2.25000   0.50000   90.00000   0.00000   0.00100   125  126  127    203
   127   2.50000   0.00000  -1.75000   0.50000   90.00000   0.00000   0.00100   126  127  128    203
   128   2.50000   0.00000  -1.25000   0.50000   90.00000   0.00000   0.00100   127  128  129    203
   129   2.50000   0.00000  -0.75000   0.50000   90.00000   0.00000   0.00100   128  129  130    203
   130   2.50000   0.00000  -0.25000   0.50000   90.00000   0.00000   0.00100   129  130  131    203
   131   2.50000   0.00000   0.25000   0.50000   90.00000   0.00000   0.00100   130  131  132    203
   132   2.50000   0.00000   0.75000   0.50000   90.00000   0.00000   0.00100   131  132  133    203
   133   2.50000   0.00000   1.25000   0.50000   90.00000   0.00000   0.00100   132  133  134    203
   134   2.50000   0.00000   1.75000   0.50000   90.00000   0.00000   0.00100   133  134  135    203
   135   2.50000   0.00000   2.25000   0.50000   90.00000   0.00000   0.00100   134  135  136    203
   136   2.50000   0.00000   2.75000   0.50000   90.00000   0.00000   0.00100   135  136  137    203
   137   2.50000   0.00000   3.25000   0.50000   90.00000   0.00000   0.00100   136  137  138    203
   138   2.50000   0.00000   3.75000   0.50000   90.00000   0.00000   0.00100   137  138  139    203
   139   2.50000   0.00000   4.25000   0.50000   90.00000   0.00000   0.00100   138  139  140    203
   140   2.50000   0.00000   4.75000   0.50000   90.00000   0.00000   0.00100   139  140    0    203
   141   7.50000   0.00000  -4.75000   0.50000   90.00000   0.00000   0.00100     0  141  142    204
   142   7.50000   0.00000  -4.25000   0.50000   90.00000   0.00000   0.00100   141  142  143    204
   143   7.50000   0.00000  -3.75000   0.50000   90.00000   0.00000   0.00100   142  143  144    204
   144   7.50000   0.00000  -3.25000   0.50000   90.00000   0.00000   0.00100   143  144  145    204
   145   7.50000   0.00000  -2.75000   0.50000   90.00000   0.00000   0.00100   144  145  146    204
   146   7.50000   0.00000  -2.25000   0.50000   90.00000   0.00000   0.00100   145  146  147    204
   147   7.50000   0.00000  -1.75000   0.50000   90.00000   0.00000   0.00100   146  147  148    204
   148   7.50000   0.00000  -1.25000   0.50000   90.00000   0.00000   0.00100   147  148  149    204
   149   7.50000   0.00000  -0.75000   0.50000   90.00000   0.00000   0.00100   148  149  150    204
   150   7.50000   0.00000  -0.25000   0.50000   90.00000   0.00000   0.00100   149  150  151    204
   151   7.50000   0.00000   0.25000   0.50000   90.00000   0.00000   0.00100   150  151  152    204
   152   7.50000   0.00000   0.75000   0.50000   90.00000   0.00000   0.00100   151  152  153    204
   153   7.50000   0.00000   1.25000   0.50000   90.00000   0.00000   0.00100   152  153  154    204
   154   7.50000   0.00000   1.75000   0.50000   90.00000   0.00000   0.00100   153  154  155    204
   155   7.50000   0.00000   2.25000   0.50000   90.00000   0.00000   0.00100   154  155  156    204
   156   7.50000   0.00000   2.75000   0.50000   90.00000   0.00000   0.00100   155  156  157    204
   157   7.50000   0.00000   3.25000   0.50000   90.00000   0.00000   0.00100   156  157  158    204
   158   7.50000   0.00000   3.75000   0.50000   90.00000   0.00000   0.00100   157  158  159    204
   159   7.50000   0.00000   4.25000   0.50000   90.00000   0.00000   0.00100   158  159  160    204
   160   7.50000   0.00000   4.75000   0.50000   90.00000   0.00000   0.00100   159  160    0    204
   161  -7.50000   5.00000  -4.75000   0.50000   90.00000   0.00000   0.00100     0  161  162    301
   162  -7.50000   5.00000  -4.25000   0.50000   90.00000   0.00000   0.00100   161  162  163    301
   163  -7.50000   5.00000  -3.75000   0.50000   90.00000   0.00000   0.00100   162  163  164    301
   164  -7.50000   5.00000  -3.25000   0.50000   90.00000   0.00000   0.00100   163  164  165    301
   165  -7.50000   5.00000  -2.75000   0.50000   90.00000   0.00000   0.00100   164  165  166    301
   166  -7.50000   5.00000  -2.25000   0.50000   90.00000   0.00000   0.00100   165  166  167    301
   167  -7.50000   5.00000  -1.75000   0.50000   90.00000   0.00000   0.00100   166  167  168    301
   168  -7.50000   5.00000  -1.25000   0.50000   90.00000   0.00000   0.00100   167  168  169    301
   169  -7.50000   5.00000  -0.75000   0.50000   90.00000   0.00000   0.00100   168  169  170    301
   170  -7.50000   5.00000  -0.25000   0.50000   90.00000   0.00000   0.00100   169  170  171    301
   171  -7.50000   5.00000   0.25000   0.50000   90.00000   0.00000   0.00100   170  171  172    301
   172  -7.50000   5.00000   0.75000   0.50000   90.00000   0.00000   0.00100   171  172  173    301
   173  -7.50000   5.00000   1.25000   0.50000   90.00000   0.00000   0.00100   172  173  174    301
   174  -7.50000   5.00000   1.75000   0.50000   90.00000   0.00000   0.00100   173  174  175    301
   175  -7.50000   5.00000   2.25000   0.50000   90.00000   0.00000   0.00100   174  175  176    301
   176  -7.50000   5.00000   2.75000   0.50000   90.00000   0.00000   0.00100   175  176  177    301
   177  -7.50000   5.00000   3.25000   0.50000   90.00000   0.00000   0.00100   176  177  178    301
   178  -7.50000   5.00000   3.75000   0.50000   90.00000   0.00000   0.00100   177  178  179    301
   179  -7.50000   5.00000   4.25000   0.50000   90.00000   0.00000   0.00100   178  179  180    301
   180  -7.50000   5.00000   4.75000   0.50000   90.00000   0.00000   0.00100   179  180    0    301
   181  -2.50000   5.00000  -4.75000   0.50000   90.00000   0.00000   0.00100     0  181  182    302
   182  -2.50000   5.00000  -4.25000   0.50000   90.00000   0.00000   0.00100   181  182  183    302
   183  -2.50000   5.00000  -3.75000   0.50000   90.00000   0.00000   0.00100   182  183  184    302
   184  -2.50000   5.00000  -3.25000   0.50000   90.00000   0.00000   0.00100   183  184  185    302
   185  -2.50000   5.00000  -2.75000   0.50000   90.00000   0.00000   0.00100   184  185  186    302
   186  -2.50000   5.00000  -2.25000   0.50000   90.00000   0.00000   0.00100   185  186  187    302
   187  -2.50000   5.00000  -1.75000   0.50000   90.00000   0.00000   0.00100   186  187  188    302
   188  -2.50000   5.00000  -1.25000   0.50000   90.00000   0.00000   0.00100   187  188  189    302
   189  -2.50000   5.00000  -0.75000   0.50000   90.00000   0.00000   0.00100   188  189  190    302
   190  -2.50000   5.00000  -0.25000   0.50000   90.00000   0.00000   0.00100   189  190  191    302
   191  -2.50000   5.00000   0.25000   0.50000   90.00000   0.00000   0.00100   190  191  192    302
   192  -2.50000   5.00000   0.75000   0.50000   90.00000   0.00000   0.00100   191  192  193    302
   193  -2.50000   5.00000   1.25000   0.50000   90.00000   0.00000   0.00100   192  193  194    302
   194  -2.50000   5.00000   1.75000   0.50000   90.00000   0.00000   0.00100   193  194  195    302
   195  -2.50000   5.00000   2.25000   0.50000   90.00000   0.00000   0.00100   194  195  196    302
   196  -2.50000   5.00000   2.75000   0.50000   90.00000   0.00000   0.00100   195  196  197    302
   197  -2.50000   5.00000   3.25000   0.50000   90.00000   0.00000   0.00100   196  197  198    302
   198  -2.50000   5.00000   3.75000   0.50000   90.00000   0.00000   0.00100   197  198  199    302
   199  -2.50000   5.00000   4.25000   0.50000   90.00000   0.00000   0.00100   198  199  200    302
   200  -2.50000   5.00000   4.75000   0.50000   90.00000   0.00000   0.00100   199  200    0    302
   201   2.50000   5.00000  -4.75000   0.50000   90.00000   0.00000   0.00100     0  201  202    303
   202   2.50000   5.00000  -4.25000   0.50000   90.00000   0.00000   0.00100   201  202  203    303
   203   2.50000   5.00000  -3.75000   0.50000   90.00000   0.00000   0.00100   202  203  204    303
   204   2.50000   5.00000  -3.25000   0.50000   90.00000   0.00000   0.00100   203  204  205    303
   205   2.50000   5.00000  -2.75000   0.50000   90.00000   0.00000   0.00100   204  205  206    303
   206   2.50000   5.00000  -2.25000   0.50000   90.00000   0.00000   0.00100   205  206  207    303
   207   2.50000   5.00000  -1.75000   0.50000   90.00000   0.00000   0.00100   206  207  208    303
   208   2.50000   5.00000  -1.25000   0.50000   90.00000   0.00000   0.00100   207  208  209    303
   209   2.50000   5.00000  -0.75000   0.50000   90.00000   0.00000   0.00100   208  209  210    303
   210   2.50000   5.00000  -0.25000   0.50000   90.00000   0.00000   0.00100   209  210  211    303
   211   2.50000   5.00000   0.25000   0.50000   90.00000   0.00000   0.00100   210  211  212    303
   212   2.50000   5.00000   0.75000   0.50000   90.00000   0.00000   0.00100   211  212  213    303
   213   2.50000   5.00000   1.25000   0.50000   90.00000   0.00000   0.00100   212  213  214    303
   214   2.50000   5.00000   1.75000   0.50000   90.00000   0.00000   0.00100   213  214  215    303
   215   2.50000   5.00000   2.25000   0.50000   90.00000   0.00000   0.00100   214  215  216    303
   216   2.50000   5.00000   2.75000   0.50000   90.00000   0.00000   0.00100   215  216  217    303
   217   2.50000   5.00000   3.25000   0.50000   90.00000   0.00000   0.00100   216  217  218    303
   218   2.50000   5.00000   3.75000   0.50000   90.00000   0.00000   0.00100   217  218  219    303
   219   2.50000   5.00000   4.25000   0.50000   90.00000   0.00000   0.00100   218  219  220    303
   220   2.50000   5.00000   4.75000   0.50000   90.00000   0.00000   0.00100   219  220    0    303
   221   7.50000   5.00000  -4.75000   0.50000   90.00000   0.00000   0.00100     0  221  222    304
   222   7.50000   5.00000  -4.25000   0.50000   90.00000   0.00000   0.00100   221  222  223    304
   223   7.50000   5.00000  -3.75000   0.50000   90.00000   0.00000   0.00100   222  223  224    304
   224   7.50000   5.00000  -3.25000   0.50000   90.00000   0.00000   0.00100   223  224  225    304
   225   7.50000   5.00000  -2.75000   0.50000   90.00000   0.00000   0.00100   224  225  226    304
   226   7.50000   5.00000  -2.25000   0.50000   90.00000   0.00000   0.00100   225  226  227    304
   227   7.50000   5.00000  -1.75000   0.50000   90.00000   0.00000   0.00100   226  227  228    304
   228   7.50000   5.00000  -1.25000   0.50000   90.00000   0.00000   0.00100   227  228  229    304
   229   7.50000   5.00000  -0.75000   0.50000   90.00000   0.00000   0.00100   228  229  230    304
   230   7.50000   5.00000  -0.25000   0.50000   90.00000   0.00000   0.00100   229  230  231    304
   231   7.50000   5.00000   0.25000   0.50000   90.00000   0.00000   0.00100   230  231  232    304
   232   7.50000   5.00000   0.75000   0.50000   90.00000   0.00000   0.00100   231  232  233    304
   233   7.50000   5.00000   1.25000   0.50000   90.00000   0.00000   0.00100   232  233  234    304
   234   7.50000   5.00000   1.75000   0.50000   90.00000   0.00000   0.00100   233  234  235    304
   235   7.50000   5.00000   2.25000   0.50000   90.00000   0.00000   0.00100   234  235  236    304
   236   7.50000   5.00000   2.75000   0.50000   90.00000   0.00000   0.00100   235  236  237    304
   237   7.50000   5.00000   3.25000   0.50000   90.00000   0.00000   0.00100   236  237  238    304
   238   7.50000   5.00000   3.75000   0.50000   90.00000   0.00000   0.00100   237  238  239    304
   239   7.50000   5.00000   4.25000   0.50000   90.00000   0.00000   0.00100   238  239  240    304
   240   7.50000   5.00000   4.75000   0.50000   90.00000   0.00000   0.00100   239  240    0    304






 ***** DATA CARD NO.  1   GN  -1     0     0     0  1.00000E+01  1.00000E-02  0.00000E+00  0.00000E+00  0.00000E+00  0.00000E+00
 ***** DATA CARD NO.  2   FR   0     0     0     0  1.50000E+02  0.00000E+00  0.00000E+00  0.00000E+00  0.00000E+00  0.00000E+00
 ***** DATA CARD NO.  3   EX   0   101    10     0  1.00000E-09  0.00000E+00  0.00000E+00  0.00000E+00  0.00000E+00  0.00000E+00
 ***** DATA CARD NO.  4   EX   0   102    10     0  1.00000E-09  0.00000E+00  0.00000E+00  0.00000E+00  0.00000E+00  0.00000E+00
 ***** DATA CARD NO.  5   EX   0   103    10     0  2.56650E-03 -3.75910E-03  0.00000E+00  0.00000E+00  0.00000E+00  0.00000E+00
 ***** DATA CARD NO.  6   EX   0   104    10     0  1.00000E-09  0.00000E+00  0.00000E+00  0.00000E+00  0.00000E+00  0.00000E+00
 ***** DATA CARD NO.  7   EX   0   201    10     0  1.00000E-09  0.00000E+00  0.00000E+00  0.00000E+00  0.00000E+00  0.00000E+00
 ***** DATA CARD NO.  8   EX   0   202    10     0  1.00000E-09  0.00000E+00  0.00000E+00  0.00000E+00  0.00000E+00  0.00000E+00
 ***** DATA CARD NO.  9   EX   0   203    10     0  1.00000E-09  0.00000E+00  0.00000E+00  0.00000E+00  0.00000E+00  0.00000E+00
 ***** DATA CARD NO. 10   EX   0   204    10     0  1.00000E-09  0.00000E+00  0.00000E+00  0.00000E+00  0.00000E+00  0.00000E+00
 ***** DATA CARD NO. 11   EX   0   301    10     0  1.00000E-09  0.00000E+00  0.00000E+00  0.00000E+00  0.00000E+00  0.00000E+00
 ***** DATA CARD NO. 12   EX   0   302    10     0  1.00000E-09  0.00000E+00  0.00000E+00  0.00000E+00  0.00000E+00  0.00000E+00
 ***** DATA CARD NO. 13   EX   0   303    10     0  1.00000E-09  0.00000E+00  0.00000E+00  0.00000E+00  0.00000E+00  0.00000E+00
 ***** DATA CARD NO. 14   EX   0   304    10     0  1.00000E-09  0.00000E+00  0.00000E+00  0.00000E+00  0.00000E+00  0.00000E+00
 ***** DATA CARD NO. 15   RP   0    19    72  1010  0.00000E+00  0.00000E+00  5.00000E+00  5.00000E+00  0.00000E+00  0.00000E+00




                                 - - - - - - FREQUENCY - - - - - -

                                    FREQUENCY= 1.5000E+02 MHZ
                                    WAVELENGTH= 1.9987E+00 METERS




                    APPROXIMATE INTEGRATION EMPLOYED FOR SEGMENTS MORE THAN   1.000 WAVELENGTHS APART



                               - - - STRUCTURE IMPEDANCE LOADING - - -

                                   THIS STRUCTURE IS NOT LOADED



                                  - - - ANTENNA ENVIRONMENT - - -

                                            FREE SPACE



                                - - - MATRIX TIMING - - -

                        FILL=    0.047 SEC.,  FACTOR=    0.016 SEC.



                                          - - - ANTENNA INPUT PARAMETERS - - -

   TAG   SEG.    VOLTAGE (VOLTS)         CURRENT (AMPS)         IMPEDANCE (OHMS)        ADMITTANCE (MHOS)      POWER
   NO.   NO.    REAL        IMAG.       REAL        IMAG.       REAL        IMAG.       REAL        IMAG.     (WATTS)
   101    10 1.00000E-09 0.00000E+00 6.76399E-08-6.89205E-08 7.25346E-03 7.39079E-03 6.76399E+01-6.89205E+01 3.38199E-17
   102    30 1.00000E-09 0.00000E+00 3.96705E-08 1.70811E-07 1.29009E-03-5.55481E-03 3.96705E+01 1.70811E+02 1.98352E-17
   103    50 2.56650E-03-3.75910E-03 2.44305E-06-1.46637E-05 2.77804E+02 1.28741E+02 2.96327E-03-1.37325E-03 3.06961E-08
   104    70 1.00000E-09 0.00000E+00 4.38164E-08 1.70372E-07 1.41588E-03-5.50538E-03 4.38164E+01 1.70372E+02 2.19082E-17
   201    90 1.00000E-09 0.00000E+00-1.15389E-07-4.77640E-08-7.39862E-03 3.06258E-03-1.15389E+02-4.77640E+01-5.76945E-17
   202   110 1.00000E-09 0.00000E+00 3.95378E-07-2.08295E-07 1.97976E-03 1.04298E-03 3.95378E+02-2.08295E+02 1.97689E-16
   203   130 1.00000E-09 0.00000E+00 1.47416E-08 1.60648E-07 5.66436E-04-6.17280E-03 1.47416E+01 1.60648E+02 7.37081E-18
   204   150 1.00000E-09 0.00000E+00 3.91273E-07-2.08899E-07 1.98885E-03 1.06184E-03 3.91273E+02-2.08899E+02 1.95636E-16
   301   170 1.00000E-09 0.00000E+00-5.62834E-08 1.30354E-07-2.79183E-03-6.46597E-03-5.62834E+01 1.30354E+02-2.81417E-17
   302   190 1.00000E-09 0.00000E+00-1.26850E-07-7.13661E-08-5.98799E-03 3.36884E-03-1.26850E+02-7.13661E+01-6.34252E-17
   303   210 1.00000E-09 0.00000E+00 9.80831E-08-7.81432E-08 6.23675E-03 4.96884E-03 9.80831E+01-7.81432E+01 4.90416E-17
   304   230 1.00000E-09 0.00000E+00-1.30784E-07-6.10715E-08-6.27737E-03 2.93131E-03-1.30784E+02-6.10715E+01-6.53921E-17



                             - - - CURRENTS AND LOCATION - - -

                                 DISTANCES IN WAVELENGTHS


  SEG.  TAG    COORD. OF SEG. CENTER     SEG.            - - - CURRENT (AMPS) - - -
  NO.   NO.     X        Y        Z      LENGTH     REAL        IMAG.       MAG.        PHASE
     1  101  -3.7525  -2.5017  -2.3766  0.25017   8.8464E-08 -1.0236E-07  1.3529E-07  -49.164
     2  101  -3.7525  -2.5017  -2.1264  0.25017   9.1118E-08 -6.1805E-08  1.1010E-07  -34.149
     3  101  -3.7525  -2.5017  -1.8763  0.25017  -4.6263E-08  1.7378E-07  1.7983E-07  104.907
     4  101  -3.7525  -2.5017  -1.6261  0.25017  -5.7949E-08  1.7247E-07  1.8195E-07  108.572
     5  101  -3.7525  -2.5017  -1.3759  0.25017   5.8604E-08 -5.3756E-08  7.9524E-08  -42.529
     6  101  -3.7525  -2.5017  -1.1258  0.25017   8.2561E-08 -8.4057E-08  1.1782E-07  -45.514
     7  101  -3.7525  -2.5017  -0.8756  0.25017   1.0379E-08  1.0000E-07  1.0054E-07   84.075
     8  101  -3.7525  -2.5017  -0.6254  0.25017   3.1379E-08  1.0884E-07  1.1327E-07   73.917
     9  101  -3.7525  -2.5017  -0.3753  0.25017   1.1829E-07 -7.1704E-08  1.3833E-07  -31.222
    10  101  -3.7525  -2.5017  -0.1251  0.25017   6.7640E-08 -6.8920E-08  9.6567E-08  -45.537
    11  101  -3.7525  -2.5017   0.1251  0.25017  -8.5046E-08  1.1799E-07  1.4544E-07  125.784
    12  101  -3.7525  -2.5017   0.3753  0.25017  -1.0538E-07  1.1930E-07  1.5917E-07  131.454
    13  101  -3.7525  -2.5017   0.6254  0.25017   9.6953E-09 -5.8156E-08  5.8958E-08  -80.535
    14  101  -3.7525  -2.5017   0.8756  0.25017   4.6735E-08 -5.2161E-08  7.0035E-08  -48.141
    15  101  -3.7525  -2.5017   1.1258  0.25017  -7.5136E-09  1.0650E-07  1.0677E-07   94.035
    16  101  -3.7525  -2.5017   1.3759  0.25017   2.5374E-08  3.9541E-08  4.6982E-08   57.311
    17  101  -3.7525  -2.5017   1.6261  0.25017   1.1572E-07 -2.0395E-07  2.3449E-07  -60.430
    18  101  -3.7525  -2.5017   1.8763  0.25017   5.8612E-08 -1.9690E-07  2.0544E-07  -73.423
    19  101  -3.7525  -2.5017   2.1264  0.25017  -9.8794E-08  5.0492E-08  1.1095E-07  152.929
    20  101  -3.7525  -2.5017   2.3766  0.25017  -8.9154E-08  9.6827E-08  1.3162E-07  132.637
    21  102  -1.2508  -2.5017  -2.3766  0.25017   1.1574E-08  2.2258E-07  2.2288E-07   87.023
    22  102  -1.2508  -2.5017  -2.1264  0.25017   1.9861E-08  1.7494E-08  2.6467E-08   41.375
    23  102  -1.2508  -2.5017  -1.8763  0.25017   5.1764E-08 -4.7290E-07  4.7573E-07  -83.753
    24  102  -1.2508  -2.5017  -1.6261  0.25017   6.2778E-08 -2.0373E-07  2.1319E-07  -72.874
    25  102  -1.2508  -2.5017  -1.3759  0.25017  -7.9765E-08  4.1860E-07  4.2613E-07  100.788
    26  102  -1.2508  -2.5017  -1.1258  0.25017  -2.8940E-07  2.7075E-07  3.9631E-07  136.907
    27  102  -1.2508  -2.5017  -0.8756  0.25017  -2.5337E-07 -3.2551E-07  4.1250E-07 -127.896
    28  102  -1.2508  -2.5017  -0.6254  0.25017   6.0494E-08 -2.2571E-07  2.3367E-07  -74.996
    29  102  -1.2508  -2.5017  -0.3753  0.25017   2.4135E-07  3.1665E-07  3.9814E-07   52.686
    30  102  -1.2508  -2.5017  -0.1251  0.25017   3.9670E-08  1.7081E-07  1.7536E-07   76.925
    31  102  -1.2508  -2.5017   0.1251  0.25017  -2.3642E-07 -4.2754E-07  4.8855E-07 -118.942
    32  102  -1.2508  -2.5017   0.3753  0.25017  -2.2144E-07 -3.2257E-07  3.9126E-07 -124.469
    33  102  -1.2508  -2.5017   0.6254  0.25017  -1.7704E-08  2.9089E-07  2.9142E-07   93.483
    34  102  -1.2508  -2.5017   0.8756  0.25017   8.7044E-08  2.4037E-07  2.5564E-07   70.093
    35  102  -1.2508  -2.5017   1.1258  0.25017   6.9158E-08 -3.2215E-07  3.2949E-07  -77.884
    36  102  -1.2508  -2.5017   1.3759  0.25017   3.9720E-08 -2.0956E-07  2.1329E-07  -79.267
    37  102  -1.2508  -2.5017   1.6261  0.25017   6.4574E-10  4.6099E-07  4.6099E-07   89.920
    38  102  -1.2508  -2.5017   1.8763  0.25017  -2.9366E-08  4.4601E-07  4.4698E-07   93.767
    39  102  -1.2508  -2.5017   2.1264  0.25017   2.2655E-08 -2.4294E-07  2.4399E-07  -84.672
    40  102  -1.2508  -2.5017   2.3766  0.25017   5.4850E-08 -3.2700E-07  3.3157E-07  -80.478
    41  103   1.2508  -2.5017  -2.3766  0.25017   3.6923E-07 -1.5212E-05  1.5216E-05  -88.610
    42  103   1.2508  -2.5017  -2.1264  0.25017   2.2273E-06 -1.3210E-05  1.3396E-05  -80.430
    43  103   1.2508  -2.5017  -1.8763  0.25017   7.0274E-07  1.5280E-05  1.5297E-05   87.367
    44  103   1.2508  -2.5017  -1.6261  0.25017  -2.6206E-06  1.2855E-05  1.3119E-05  101.522
    45  103   1.2508  -2.5017  -1.3759  0.25017  -1.1164E-06 -1.5290E-05  1.5330E-05  -94.176
    46  103   1.2508  -2.5017  -1.1258  0.25017   2.8906E-06 -1.2733E-05  1.3057E-05  -77.210
    47  103   1.2508  -2.5017  -0.8756  0.25017   1.3435E-06  1.5391E-05  1.5449E-05   85.011
    48  103   1.2508  -2.5017  -0.6254  0.25017  -3.3442E-06  1.2718E-05  1.3150E-05  104.732
    49  103   1.2508  -2.5017  -0.3753  0.25017  -1.6829E-06 -1.5733E-05  1.5823E-05  -96.105
    50  103   1.2508  -2.5017  -0.1251  0.25017   2.4431E-06 -1.4664E-05  1.4866E-05  -80.541
    51  103   1.2508  -2.5017   0.1251  0.25017  -6.2700E-06  8.2897E-06  1.0394E-05  127.103
    52  103   1.2508  -2.5017   0.3753  0.25017  -3.5603E-06  1.2496E-05  1.2993E-05  105.903
    53  103   1.2508  -2.5017   0.6254  0.25017   6.1117E-06 -8.7391E-06  1.0664E-05  -55.033
    54  103   1.2508  -2.5017   0.8756  0.25017   3.5711E-06 -1.2329E-05  1.2836E-05  -73.847
    55  103   1.2508  -2.5017   1.1258  0.25017  -5.9058E-06  8.9987E-06  1.0764E-05  123.277
    56  103   1.2508  -2.5017   1.3759  0.25017  -3.6835E-06  1.2246E-05  1.2788E-05  106.741
    57  103   1.2508  -2.5017   1.6261  0.25017   5.7248E-06 -9.2174E-06  1.0851E-05  -58.156
    58  103   1.2508  -2.5017   1.8763  0.25017   3.9265E-06 -1.2110E-05  1.2731E-05  -72.036
    59  103   1.2508  -2.5017   2.1264  0.25017  -5.5460E-06  9.6904E-06  1.1165E-05  119.784
    60  103   1.2508  -2.5017   2.3766  0.25017  -4.7016E-06  1.1796E-05  1.2698E-05  111.732
    61  104   3.7525  -2.5017  -2.3766  0.25017   1.8522E-08  2.2456E-07  2.2532E-07   85.285
    62  104   3.7525  -2.5017  -2.1264  0.25017   2.6901E-08  1.9745E-08  3.3369E-08   36.278
    63  104   3.7525  -2.5017  -1.8763  0.25017   4.6334E-08 -4.7460E-07  4.7686E-07  -84.424
    64  104   3.7525  -2.5017  -1.6261  0.25017   5.7545E-08 -2.0697E-07  2.1482E-07  -74.462
    65  104   3.7525  -2.5017  -1.3759  0.25017  -7.2047E-08  4.1789E-07  4.2405E-07   99.782
    66  104   3.7525  -2.5017  -1.1258  0.25017  -2.8117E-07  2.7100E-07  3.9051E-07  136.055
    67  104   3.7525  -2.5017  -0.8756  0.25017  -2.5885E-07 -3.2781E-07  4.1769E-07 -128.296
    68  104   3.7525  -2.5017  -0.6254  0.25017   5.1438E-08 -2.2942E-07  2.3511E-07  -77.363
    69  104   3.7525  -2.5017  -0.3753  0.25017   2.4259E-07  3.1469E-07  3.9734E-07   52.372
    70  104   3.7525  -2.5017  -0.1251  0.25017   4.3816E-08  1.7037E-07  1.7592E-07   75.577
    71  104   3.7525  -2.5017   0.1251  0.25017  -2.3939E-07 -4.2789E-07  4.9030E-07 -119.225
    72  104   3.7525  -2.5017   0.3753  0.25017  -2.2257E-07 -3.2177E-07  3.9125E-07 -124.672
    73  104   3.7525  -2.5017   0.6254  0.25017  -9.2129E-09  2.9340E-07  2.9355E-07   91.799
    74  104   3.7525  -2.5017   0.8756  0.25017   9.2052E-08  2.4184E-07  2.5877E-07   69.162
    75  104   3.7525  -2.5017   1.1258  0.25017   6.0216E-08 -3.2316E-07  3.2872E-07  -79.445
    76  104   3.7525  -2.5017   1.3759  0.25017   3.0599E-08 -2.0993E-07  2.1215E-07  -81.707
    77  104   3.7525  -2.5017   1.6261  0.25017   4.3655E-09  4.6324E-07  4.6326E-07   89.460
    78  104   3.7525  -2.5017   1.8763  0.25017  -2.4867E-08  4.4752E-07  4.4821E-07   93.180
    79  104   3.7525  -2.5017   2.1264  0.25017   1.5063E-08 -2.4471E-07  2.4518E-07  -86.478
    80  104   3.7525  -2.5017   2.3766  0.25017   4.7573E-08 -3.2864E-07  3.3207E-07  -81.763
    81  201  -3.7525   0.0000  -2.3766  0.25017  -1.2994E-07 -6.0636E-08  1.4339E-07 -154.984
    82  201  -3.7525   0.0000  -2.1264  0.25017  -1.3034E-07 -9.3410E-08  1.6035E-07 -144.371
    83  201  -3.7525   0.0000  -1.8763  0.25017   8.4597E-08 -1.4183E-08  8.5778E-08   -9.517
    84  201  -3.7525   0.0000  -1.6261  0.25017   8.3360E-08  8.9021E-09  8.3834E-08    6.096
    85  201  -3.7525   0.0000  -1.3759  0.25017  -1.2462E-07 -4.3803E-08  1.3210E-07 -160.634
    86  201  -3.7525   0.0000  -1.1258  0.25017  -1.5179E-07 -1.7465E-08  1.5280E-07 -173.437
    87  201  -3.7525   0.0000  -0.8756  0.25017  -5.6844E-09  8.2594E-08  8.2789E-08   93.937
    88  201  -3.7525   0.0000  -0.6254  0.25017  -3.4439E-08  8.0922E-08  8.7946E-08  113.054
    89  201  -3.7525   0.0000  -0.3753  0.25017  -1.9078E-07 -2.3801E-08  1.9226E-07 -172.889
    90  201  -3.7525   0.0000  -0.1251  0.25017  -1.1539E-07 -4.7764E-08  1.2488E-07 -157.513
    91  201  -3.7525   0.0000   0.1251  0.25017   1.2503E-07  2.3067E-08  1.2714E-07   10.453
    92  201  -3.7525   0.0000   0.3753  0.25017   1.3648E-07  1.1693E-08  1.3698E-07    4.897
    93  201  -3.7525   0.0000   0.6254  0.25017  -4.8003E-08 -9.0017E-08  1.0202E-07 -118.070
    94  201  -3.7525   0.0000   0.8756  0.25017  -5.5474E-08 -8.9617E-08  1.0540E-07 -121.758
    95  201  -3.7525   0.0000   1.1258  0.25017   8.2905E-08  3.9982E-08  9.2043E-08   25.746
    96  201  -3.7525   0.0000   1.3759  0.25017   2.5426E-08  1.0922E-07  1.1214E-07   76.895
    97  201  -3.7525   0.0000   1.6261  0.25017  -1.4744E-07  6.8642E-08  1.6264E-07  155.036
    98  201  -3.7525   0.0000   1.8763  0.25017  -6.1695E-08  7.0133E-08  9.3407E-08  131.338
    99  201  -3.7525   0.0000   2.1264  0.25017   1.8241E-07  1.2796E-07  2.2281E-07   35.048
   100  201  -3.7525   0.0000   2.3766  0.25017   1.4290E-07  7.7281E-08  1.6246E-07   28.404
   101  202  -1.2508   0.0000  -2.3766  0.25017   5.1771E-07 -2.2022E-07  5.6260E-07  -23.044
   102  202  -1.2508   0.0000  -2.1264  0.25017   5.5363E-07 -2.6080E-07  6.1198E-07  -25.223
   103  202  -1.2508   0.0000  -1.8763  0.25017  -4.0672E-07  1.7587E-07  4.4312E-07  156.617
   104  202  -1.2508   0.0000  -1.6261  0.25017  -5.6854E-07  2.4009E-07  6.1715E-07  157.106
   105  202  -1.2508   0.0000  -1.3759  0.25017   2.2539E-07 -2.0587E-07  3.0526E-07  -42.408
   106  202  -1.2508   0.0000  -1.1258  0.25017   3.2233E-07 -2.9488E-07  4.3686E-07  -42.454
   107  202  -1.2508   0.0000  -0.8756  0.25017  -4.3593E-07  1.6442E-07  4.6591E-07  159.334
   108  202  -1.2508   0.0000  -0.6254  0.25017  -4.7253E-07  3.3009E-07  5.7641E-07  145.064
   109  202  -1.2508   0.0000  -0.3753  0.25017   3.2835E-07 -4.1629E-08  3.3098E-07   -7.225
   110  202  -1.2508   0.0000  -0.1251  0.25017   3.9538E-07 -2.0829E-07  4.4689E-07  -27.781
   111  202  -1.2508   0.0000   0.1251  0.25017  -3.8175E-07  3.3390E-08  3.8321E-07  175.001
   112  202  -1.2508   0.0000   0.3753  0.25017  -4.4283E-07  2.8307E-08  4.4374E-07  176.342
   113  202  -1.2508   0.0000   0.6254  0.25017   3.1899E-07 -2.8133E-07  4.2533E-07  -41.410
   114  202  -1.2508   0.0000   0.8756  0.25017   3.6640E-07 -1.8196E-07  4.0909E-07  -26.410
   115  202  -1.2508   0.0000   1.1258  0.25017  -3.7130E-07  3.0202E-07  4.7862E-07  140.874
   116  202  -1.2508   0.0000   1.3759  0.25017  -3.4697E-07  3.3071E-07  4.7933E-07  136.374
   117  202  -1.2508   0.0000   1.6261  0.25017   4.6267E-07 -1.1949E-07  4.7785E-07  -14.481
   118  202  -1.2508   0.0000   1.8763  0.25017   4.3967E-07 -1.6732E-07  4.7043E-07  -20.835
   119  202  -1.2508   0.0000   2.1264  0.25017  -4.4334E-07  2.5637E-07  5.1212E-07  149.961
   120  202  -1.2508   0.0000   2.3766  0.25017  -4.7008E-07  2.5672E-07  5.3561E-07  151.360
   121  203   1.2508   0.0000  -2.3766  0.25017  -1.9367E-08  2.0093E-07  2.0186E-07   95.506
   122  203   1.2508   0.0000  -2.1264  0.25017  -4.6802E-09 -4.0872E-09  6.2137E-09 -138.870
   123  203   1.2508   0.0000  -1.8763  0.25017   8.4186E-08 -4.5535E-07  4.6307E-07  -79.525
   124  203   1.2508   0.0000  -1.6261  0.25017   8.6162E-08 -1.8386E-07  2.0305E-07  -64.891
   125  203   1.2508   0.0000  -1.3759  0.25017  -1.1969E-07  4.0332E-07  4.2070E-07  106.528
   126  203   1.2508   0.0000  -1.1258  0.25017  -3.3397E-07  2.5287E-07  4.1891E-07  142.868
   127  203   1.2508   0.0000  -0.8756  0.25017  -2.4814E-07 -3.1124E-07  3.9805E-07 -128.563
   128  203   1.2508   0.0000  -0.6254  0.25017   6.6559E-08 -2.0897E-07  2.1932E-07  -72.333
   129  203   1.2508   0.0000  -0.3753  0.25017   2.0503E-07  3.0536E-07  3.6780E-07   56.121
   130  203   1.2508   0.0000  -0.1251  0.25017   1.4742E-08  1.6065E-07  1.6132E-07   84.757
   131  203   1.2508   0.0000   0.1251  0.25017  -2.0868E-07 -4.1147E-07  4.6136E-07 -116.892
   132  203   1.2508   0.0000   0.3753  0.25017  -1.9837E-07 -3.1397E-07  3.7139E-07 -122.285
   133  203   1.2508   0.0000   0.6254  0.25017  -4.2043E-08  2.6828E-07  2.7156E-07   98.906
   134  203   1.2508   0.0000   0.8756  0.25017   7.2143E-08  2.2618E-07  2.3741E-07   72.310
   135  203   1.2508   0.0000   1.1258  0.25017   1.0313E-07 -2.9972E-07  3.1696E-07  -71.012
   136  203   1.2508   0.0000   1.3759  0.25017   5.9405E-08 -1.9023E-07  1.9929E-07  -72.657
   137  203   1.2508   0.0000   1.6261  0.25017  -3.7289E-08  4.4802E-07  4.4957E-07   94.758
   138  203   1.2508   0.0000   1.8763  0.25017  -5.7752E-08  4.4238E-07  4.4614E-07   97.438
   139  203   1.2508   0.0000   2.1264  0.25017   5.6125E-08 -2.0704E-07  2.1451E-07  -74.832
   140  203   1.2508   0.0000   2.3766  0.25017   8.6322E-08 -3.0023E-07  3.1240E-07  -73.959
   141  204   3.7525   0.0000  -2.3766  0.25017   5.1702E-07 -2.2160E-07  5.6251E-07  -23.200
   142  204   3.7525   0.0000  -2.1264  0.25017   5.4971E-07 -2.6130E-07  6.0865E-07  -25.424
   143  204   3.7525   0.0000  -1.8763  0.25017  -4.1184E-07  1.7596E-07  4.4786E-07  156.865
   144  204   3.7525   0.0000  -1.6261  0.25017  -5.7160E-07  2.3602E-07  6.1841E-07  157.564
   145  204   3.7525   0.0000  -1.3759  0.25017   2.2325E-07 -2.1476E-07  3.0978E-07  -43.891
   146  204   3.7525   0.0000  -1.1258  0.25017   3.1937E-07 -3.0391E-07  4.4086E-07  -43.579
   147  204   3.7525   0.0000  -0.8756  0.25017  -4.3759E-07  1.5834E-07  4.6535E-07  160.107
   148  204   3.7525   0.0000  -0.6254  0.25017  -4.7190E-07  3.2611E-07  5.7362E-07  145.353
   149  204   3.7525   0.0000  -0.3753  0.25017   3.2749E-07 -4.4137E-08  3.3045E-07   -7.676
   150  204   3.7525   0.0000  -0.1251  0.25017   3.9127E-07 -2.0890E-07  4.4355E-07  -28.098
   151  204   3.7525   0.0000   0.1251  0.25017  -3.8467E-07  3.3553E-08  3.8613E-07  175.015
   152  204   3.7525   0.0000   0.3753  0.25017  -4.4211E-07  2.8133E-08  4.4300E-07  176.359
   153  204   3.7525   0.0000   0.6254  0.25017   3.1858E-07 -2.7952E-07  4.2382E-07  -41.263
   154  204   3.7525   0.0000   0.8756  0.25017   3.6176E-07 -1.7554E-07  4.0210E-07  -25.885
   155  204   3.7525   0.0000   1.1258  0.25017  -3.7496E-07  3.1046E-07  4.8680E-07  140.376
   156  204   3.7525   0.0000   1.3759  0.25017  -3.4539E-07  3.3587E-07  4.8177E-07  135.800
   157  204   3.7525   0.0000   1.6261  0.25017   4.6460E-07 -1.1847E-07  4.7947E-07  -14.305
   158  204   3.7525   0.0000   1.8763  0.25017   4.3659E-07 -1.6705E-07  4.6746E-07  -20.938
   159  204   3.7525   0.0000   2.1264  0.25017  -4.4786E-07  2.5734E-07  5.1652E-07  150.118
   160  204   3.7525   0.0000   2.3766  0.25017  -4.7103E-07  2.5703E-07  5.3659E-07  151.380
   161  301  -3.7525   2.5017  -2.3766  0.25017  -7.5277E-08  1.5244E-07  1.7001E-07  116.281
   162  301  -3.7525   2.5017  -2.1264  0.25017  -7.1733E-08  1.6465E-07  1.7960E-07  113.542
   163  301  -3.7525   2.5017  -1.8763  0.25017   7.1995E-08 -1.0154E-07  1.2447E-07  -54.662
   164  301  -3.7525   2.5017  -1.6261  0.25017   8.1407E-08 -1.1575E-07  1.4151E-07  -54.882
   165  301  -3.7525   2.5017  -1.3759  0.25017  -3.8195E-08  1.3042E-07  1.3590E-07  106.323
   166  301  -3.7525   2.5017  -1.1258  0.25017  -1.9580E-08  1.3640E-07  1.3779E-07   98.169
   167  301  -3.7525   2.5017  -0.8756  0.25017   1.2727E-07 -9.7893E-08  1.6056E-07  -37.566
   168  301  -3.7525   2.5017  -0.6254  0.25017   1.2371E-07 -8.6750E-08  1.5110E-07  -35.039
   169  301  -3.7525   2.5017  -0.3753  0.25017  -3.1492E-08  1.5224E-07  1.5547E-07  101.687
   170  301  -3.7525   2.5017  -0.1251  0.25017  -5.6283E-08  1.3035E-07  1.4199E-07  113.353
   171  301  -3.7525   2.5017   0.1251  0.25017   6.4617E-08 -1.2676E-07  1.4228E-07  -62.989
   172  301  -3.7525   2.5017   0.3753  0.25017   5.7567E-08 -1.2368E-07  1.3642E-07  -65.040
   173  301  -3.7525   2.5017   0.6254  0.25017  -9.0616E-08  1.1675E-07  1.4779E-07  127.816
   174  301  -3.7525   2.5017   0.8756  0.25017  -9.8255E-08  1.0413E-07  1.4317E-07  133.336
   175  301  -3.7525   2.5017   1.1258  0.25017   5.9339E-08 -1.3354E-07  1.4613E-07  -66.042
   176  301  -3.7525   2.5017   1.3759  0.25017   9.8465E-08 -1.1249E-07  1.4949E-07  -48.803
   177  301  -3.7525   2.5017   1.6261  0.25017  -2.3487E-08  1.1939E-07  1.2168E-07  101.129
   178  301  -3.7525   2.5017   1.8763  0.25017  -3.9539E-08  6.5849E-08  7.6808E-08  120.982
   179  301  -3.7525   2.5017   2.1264  0.25017   8.6375E-08 -2.0810E-07  2.2531E-07  -67.458
   180  301  -3.7525   2.5017   2.3766  0.25017   8.2956E-08 -1.6546E-07  1.8509E-07  -63.372
   181  302  -1.2508   2.5017  -2.3766  0.25017  -1.4256E-07 -8.9899E-08  1.6854E-07 -147.765
   182  302  -1.2508   2.5017  -2.1264  0.25017  -1.4363E-07 -1.2646E-07  1.9136E-07 -138.637
   183  302  -1.2508   2.5017  -1.8763  0.25017   9.7316E-08  1.9193E-09  9.7335E-08    1.130
   184  302  -1.2508   2.5017  -1.6261  0.25017   1.0109E-07  3.0269E-08  1.0552E-07   16.670
   185  302  -1.2508   2.5017  -1.3759  0.25017  -1.2955E-07 -6.4873E-08  1.4488E-07 -153.400
   186  302  -1.2508   2.5017  -1.1258  0.25017  -1.6288E-07 -3.8184E-08  1.6729E-07 -166.806
   187  302  -1.2508   2.5017  -0.8756  0.25017   4.9552E-10  1.0679E-07  1.0680E-07   89.734
   188  302  -1.2508   2.5017  -0.6254  0.25017  -2.7720E-08  1.0486E-07  1.0846E-07  104.808
   189  302  -1.2508   2.5017  -0.3753  0.25017  -2.0335E-07 -4.6022E-08  2.0849E-07 -167.248
   190  302  -1.2508   2.5017  -0.1251  0.25017  -1.2685E-07 -7.1366E-08  1.4555E-07 -150.638
   191  302  -1.2508   2.5017   0.1251  0.25017   1.3584E-07  4.4359E-08  1.4290E-07   18.085
   192  302  -1.2508   2.5017   0.3753  0.25017   1.4929E-07  3.3467E-08  1.5300E-07   12.635
   193  302  -1.2508   2.5017   0.6254  0.25017  -5.4196E-08 -1.1426E-07  1.2646E-07 -115.376
   194  302  -1.2508   2.5017   0.8756  0.25017  -6.1609E-08 -1.1568E-07  1.3107E-07 -118.038
   195  302  -1.2508   2.5017   1.1258  0.25017   9.4130E-08  5.9163E-08  1.1118E-07   32.150
   196  302  -1.2508   2.5017   1.3759  0.25017   3.1199E-08  1.3087E-07  1.3454E-07   76.591
   197  302  -1.2508   2.5017   1.6261  0.25017  -1.6429E-07  4.7959E-08  1.7114E-07  163.726
   198  302  -1.2508   2.5017   1.8763  0.25017  -7.4095E-08  5.2657E-08  9.0900E-08  144.600
   199  302  -1.2508   2.5017   2.1264  0.25017   1.9603E-07  1.5919E-07  2.5252E-07   39.079
   200  302  -1.2508   2.5017   2.3766  0.25017   1.5598E-07  1.0623E-07  1.8872E-07   34.257
   201  303   1.2508   2.5017  -2.3766  0.25017   1.2937E-07 -1.1479E-07  1.7295E-07  -41.583
   202  303   1.2508   2.5017  -2.1264  0.25017   1.3431E-07 -7.3035E-08  1.5288E-07  -28.537
   203  303   1.2508   2.5017  -1.8763  0.25017  -7.8975E-08  1.8760E-07  2.0354E-07  112.830
   204  303   1.2508   2.5017  -1.6261  0.25017  -1.0051E-07  1.8520E-07  2.1071E-07  118.488
   205  303   1.2508   2.5017  -1.3759  0.25017   8.0508E-08 -6.6326E-08  1.0431E-07  -39.483
   206  303   1.2508   2.5017  -1.1258  0.25017   1.0552E-07 -9.6503E-08  1.4299E-07  -42.444
   207  303   1.2508   2.5017  -0.8756  0.25017  -3.7169E-08  1.1039E-07  1.1648E-07  108.609
   208  303   1.2508   2.5017  -0.6254  0.25017  -2.0774E-08  1.1634E-07  1.1818E-07  100.124
   209  303   1.2508   2.5017  -0.3753  0.25017   1.3759E-07 -8.7167E-08  1.6288E-07  -32.356
   210  303   1.2508   2.5017  -0.1251  0.25017   9.8083E-08 -7.8143E-08  1.2541E-07  -38.544
   211  303   1.2508   2.5017   0.1251  0.25017  -1.1561E-07  1.3627E-07  1.7870E-07  130.310
   212  303   1.2508   2.5017   0.3753  0.25017  -1.3568E-07  1.3479E-07  1.9125E-07  135.187
   213  303   1.2508   2.5017   0.6254  0.25017   4.9668E-08 -6.8231E-08  8.4394E-08  -53.948
   214  303   1.2508   2.5017   0.8756  0.25017   9.0381E-08 -5.8898E-08  1.0788E-07  -33.091
   215  303   1.2508   2.5017   1.1258  0.25017  -3.6649E-08  1.2491E-07  1.3017E-07  106.352
   216  303   1.2508   2.5017   1.3759  0.25017  -1.3338E-08  5.5096E-08  5.6687E-08  103.609
   217  303   1.2508   2.5017   1.6261  0.25017   1.4460E-07 -2.1001E-07  2.5498E-07  -55.451
   218  303   1.2508   2.5017   1.8763  0.25017   9.3133E-08 -1.9463E-07  2.1576E-07  -64.428
   219  303   1.2508   2.5017   2.1264  0.25017  -1.3541E-07  7.7923E-08  1.5623E-07  150.082
   220  303   1.2508   2.5017   2.3766  0.25017  -1.2988E-07  1.1438E-07  1.7306E-07  138.632
   221  304   3.7525   2.5017  -2.3766  0.25017  -1.4830E-07 -7.8666E-08  1.6787E-07 -152.056
   222  304   3.7525   2.5017  -2.1264  0.25017  -1.4944E-07 -1.1590E-07  1.8912E-07 -142.204
   223  304   3.7525   2.5017  -1.8763  0.25017   1.0180E-07 -9.2118E-09  1.0221E-07   -5.171
   224  304   3.7525   2.5017  -1.6261  0.25017   1.0642E-07  1.8449E-08  1.0801E-07    9.835
   225  304   3.7525   2.5017  -1.3759  0.25017  -1.3386E-07 -5.6415E-08  1.4526E-07 -157.147
   226  304   3.7525   2.5017  -1.1258  0.25017  -1.6855E-07 -2.9210E-08  1.7106E-07 -170.168
   227  304   3.7525   2.5017  -0.8756  0.25017   4.2590E-09  9.6303E-08  9.6397E-08   87.468
   228  304   3.7525   2.5017  -0.6254  0.25017  -2.1365E-08  9.5108E-08  9.7478E-08  102.661
   229  304   3.7525   2.5017  -0.3753  0.25017  -2.0484E-07 -3.5191E-08  2.0784E-07 -170.252
   230  304   3.7525   2.5017  -0.1251  0.25017  -1.3078E-07 -6.1072E-08  1.4434E-07 -154.969
   231  304   3.7525   2.5017   0.1251  0.25017   1.3801E-07  3.2958E-08  1.4189E-07   13.431
   232  304   3.7525   2.5017   0.3753  0.25017   1.5139E-07  2.0910E-08  1.5283E-07    7.864
   233  304   3.7525   2.5017   0.6254  0.25017  -5.9888E-08 -1.0606E-07  1.2180E-07 -119.452
   234  304   3.7525   2.5017   0.8756  0.25017  -6.7093E-08 -1.0593E-07  1.2539E-07 -122.348
   235  304   3.7525   2.5017   1.1258  0.25017   9.7911E-08  4.9352E-08  1.0965E-07   26.751
   236  304   3.7525   2.5017   1.3759  0.25017   3.5777E-08  1.2070E-07  1.2589E-07   73.489
   237  304   3.7525   2.5017   1.6261  0.25017  -1.6955E-07  5.7980E-08  1.7919E-07  161.121
   238  304   3.7525   2.5017   1.8763  0.25017  -8.1253E-08  6.2692E-08  1.0263E-07  142.347
   239  304   3.7525   2.5017   2.1264  0.25017   1.9866E-07  1.4781E-07  2.4761E-07   36.651
   240  304   3.7525   2.5017   2.3766  0.25017   1.6090E-07  9.4417E-08  1.8656E-07   30.404



                                        - - - POWER BUDGET - - -

                                           INPUT POWER   = 3.0696E-08 WATTS
                                           RADIATED POWER= 3.0696E-08 WATTS
                                           STRUCTURE LOSS= 0.0000E+00 WATTS
                                           NETWORK LOSS  = 0.0000E+00 WATTS
                                           EFFICIENCY    = 100.00 PERCENT



                                                - - - RADIATION PATTERNS - - -

  - - ANGLES - -       - DIRECTIVE GAINS -       - - - POLARIZATION - - -    - - - E(THETA) - - -    - - - E(PHI) - - -
  THETA     PHI        VERT.   HOR.    TOTAL      AXIAL     TILT   SENSE     MAGNITUDE    PHASE      MAGNITUDE    PHASE 
 DEGREES  DEGREES       DB      DB      DB        RATIO     DEG.              VOLTS/M    DEGREES      VOLTS/M    DEGREES
    0.00     0.00    -999.99 -999.99 -999.99    0.00000     0.00            0.00000E+00     0.00    0.00000E+00     0.00
    5.00     0.00      -5.41 -999.99   -5.41    0.00000     0.00  LINEAR    7.27500E-04   -34.06    0.00000E+00     0.00
   10.00     0.00       0.72 -999.99    0.72    0.00000     0.00  LINEAR    1.47474E-03    -0.06    0.00000E+00     0.00
   15.00     0.00       4.19 -999.99    4.19    0.00000     0.00  LINEAR    2.19842E-03    39.90    0.00000E+00     0.00
   20.00     0.00       6.50 -999.99    6.50    0.00000     0.00  LINEAR    2.86577E-03    81.49    0.00000E+00     0.00
   25.00     0.00       7.06 -999.99    7.06    0.00000     0.00  LINEAR    3.05676E-03   118.53    0.00000E+00     0.00
   30.00     0.00       5.77 -999.99    5.77    0.00000     0.00  LINEAR    2.63544E-03   150.61    0.00000E+00     0.00
   35.00     0.00       0.88 -999.99    0.88    0.00000     0.00  LINEAR    1.50203E-03   179.95    0.00000E+00     0.00
   40.00     0.00     -37.84 -999.99  -37.84    0.00000     0.00  LINEAR    1.73894E-05   154.06    0.00000E+00     0.00
   45.00     0.00      -3.09 -999.99   -3.09    0.00000     0.00  LINEAR    9.50452E-04    65.12    0.00000E+00     0.00
   50.00     0.00      -7.08 -999.99   -7.08    0.00000     0.00  LINEAR    6.00338E-04    89.68    0.00000E+00     0.00
   55.00     0.00      -5.44 -999.99   -5.44    0.00000     0.00  LINEAR    7.25444E-04   -51.68    0.00000E+00     0.00
   60.00     0.00       1.48 -999.99    1.48    0.00000     0.00  LINEAR    1.60789E-03   -35.06    0.00000E+00     0.00
   65.00     0.00      -2.34 -999.99   -2.34    0.00000     0.00  LINEAR    1.03593E-03   -16.13    0.00000E+00     0.00
   70.00     0.00     -11.85 -999.99  -11.85    0.00000     0.00  LINEAR    3.46842E-04   146.93    0.00000E+00     0.00
   75.00     0.00      -6.21 -999.99   -6.21    0.00000     0.00  LINEAR    6.63448E-04   170.53    0.00000E+00     0.00
   80.00     0.00      -9.52 -999.99   -9.52    0.00000     0.00  LINEAR    4.53421E-04    26.35    0.00000E+00     0.00
   85.00     0.00      -0.84 -999.99   -0.84    0.00000     0.00  LINEAR    1.23196E-03    25.76    0.00000E+00     0.00
   90.00     0.00      -8.39 -999.99   -8.39    0.00000     0.00  LINEAR    5.16146E-04    55.42    0.00000E+00     0.00
    0.00     5.00    -999.99 -999.99 -999.99    0.00000     0.00            0.00000E+00     0.00    0.00000E+00     0.00
    5.00     5.00      -5.46 -999.99   -5.46    0.00000     0.00  LINEAR    7.23673E-04   -40.85    0.00000E+00     0.00
   10.00     5.00       0.80 -999.99    0.80    0.00000     0.00  LINEAR    1.48733E-03   -14.58    0.00000E+00     0.00
   15.00     5.00       4.13 -999.99    4.13    0.00000     0.00  LINEAR    2.18333E-03    18.09    0.00000E+00     0.00
   20.00     5.00       6.36 -999.99    6.36    0.00000     0.00  LINEAR    2.82077E-03    55.12    0.00000E+00     0.00
   25.00     5.00       6.83 -999.99    6.83    0.00000     0.00  LINEAR    2.97851E-03    84.97    0.00000E+00     0.00
   30.00     5.00       5.56 -999.99    5.56    0.00000     0.00  LINEAR    2.57302E-03   110.38    0.00000E+00     0.00
   35.00     5.00       0.81 -999.99    0.81    0.00000     0.00  LINEAR    1.48937E-03   134.14    0.00000E+00     0.00
   40.00     5.00     -25.52 -999.99  -25.52    0.00000     0.00  LINEAR    7.18689E-05   -79.50    0.00000E+00     0.00
   45.00     5.00      -3.30 -999.99   -3.30    0.00000     0.00  LINEAR    9.28228E-04     8.88    0.00000E+00     0.00
   50.00     5.00      -7.24 -999.99   -7.24    0.00000     0.00  LINEAR    5.89314E-04    29.80    0.00000E+00     0.00
   55.00     5.00      -6.16 -999.99   -6.16    0.00000     0.00  LINEAR    6.67446E-04  -121.13    0.00000E+00     0.00
   60.00     5.00       0.44 -999.99    0.44    0.00000     0.00  LINEAR    1.42739E-03  -108.17    0.00000E+00     0.00
   65.00     5.00      -3.25 -999.99   -3.25    0.00000     0.00  LINEAR    9.33571E-04   -87.08    0.00000E+00     0.00
   70.00     5.00      -9.38 -999.99   -9.38    0.00000     0.00  LINEAR    4.60618E-04    67.38    0.00000E+00     0.00
   75.00     5.00      -5.19 -999.99   -5.19    0.00000     0.00  LINEAR    7.46255E-04    92.00    0.00000E+00     0.00
   80.00     5.00      -7.02 -999.99   -7.02    0.00000     0.00  LINEAR    6.04499E-04   -67.49    0.00000E+00     0.00
   85.00     5.00       0.92 -999.99    0.92    0.00000     0.00  LINEAR    1.50753E-03   -63.98    0.00000E+00     0.00
   90.00     5.00      -7.95 -999.99   -7.95    0.00000     0.00  LINEAR    5.43501E-04   -36.89    0.00000E+00     0.00
    0.00    10.00    -999.99 -999.99 -999.99    0.00000     0.00            0.00000E+00     0.00    0.00000E+00     0.00
    5.00    10.00      -5.51 -999.99   -5.51    0.00000     0.00  LINEAR    7.19110E-04   -47.90    0.00000E+00     0.00
   10.00    10.00       0.89 -999.99    0.89    0.00000     0.00  LINEAR    1.50370E-03   -29.40    0.00000E+00     0.00
   15.00    10.00       4.19 -999.99    4.19    0.00000     0.00  LINEAR    2.19683E-03    -5.03    0.00000E+00     0.00
   20.00    10.00       6.08 -999.99    6.08    0.00000     0.00  LINEAR    2.73287E-03    26.89    0.00000E+00     0.00
   25.00    10.00       6.58 -999.99    6.58    0.00000     0.00  LINEAR    2.89521E-03    49.48    0.00000E+00     0.00
   30.00    10.00       5.42 -999.99    5.42    0.00000     0.00  LINEAR    2.53293E-03    67.46    0.00000E+00     0.00
   35.00    10.00       0.67 -999.99    0.67    0.00000     0.00  LINEAR    1.46580E-03    86.33    0.00000E+00     0.00
   40.00    10.00     -16.25 -999.99  -16.25    0.00000     0.00  LINEAR    2.08917E-04   -92.19    0.00000E+00     0.00
   45.00    10.00      -2.82 -999.99   -2.82    0.00000     0.00  LINEAR    9.80931E-04   -54.10    0.00000E+00     0.00
   50.00    10.00      -7.17 -999.99   -7.17    0.00000     0.00  LINEAR    5.94468E-04   -34.09    0.00000E+00     0.00
   55.00    10.00      -6.43 -999.99   -6.43    0.00000     0.00  LINEAR    6.47285E-04   163.86    0.00000E+00     0.00
   60.00    10.00       1.01 -999.99    1.01    0.00000     0.00  LINEAR    1.52334E-03   172.06    0.00000E+00     0.00
   65.00    10.00      -3.26 -999.99   -3.26    0.00000     0.00  LINEAR    9.31766E-04  -169.85    0.00000E+00     0.00
   70.00    10.00      -9.23 -999.99   -9.23    0.00000     0.00  LINEAR    4.69008E-04    -1.99    0.00000E+00     0.00
   75.00    10.00      -5.02 -999.99   -5.02    0.00000     0.00  LINEAR    7.61090E-04    17.97    0.00000E+00     0.00
   80.00    10.00      -7.60 -999.99   -7.60    0.00000     0.00  LINEAR    5.65627E-04  -132.02    0.00000E+00     0.00
   85.00    10.00       0.73 -999.99    0.73    0.00000     0.00  LINEAR    1.47522E-03  -133.43    0.00000E+00     0.00
   90.00    10.00      -8.12 -999.99   -8.12    0.00000     0.00  LINEAR    5.32671E-04  -109.93    0.00000E+00     0.00
    0.00    15.00    -999.99 -999.99 -999.99    0.00000     0.00            0.00000E+00     0.00    0.00000E+00     0.00
    5.00    15.00      -5.58 -999.99   -5.58    0.00000     0.00  LINEAR    7.13911E-04   -55.18    0.00000E+00     0.00
   10.00    15.00       1.00 -999.99    1.00    0.00000     0.00  LINEAR    1.52147E-03   -44.33    0.00000E+00     0.00
   15.00    15.00       4.42 -999.99    4.42    0.00000     0.00  LINEAR    2.25634E-03   -28.67    0.00000E+00     0.00
   20.00    15.00       5.83 -999.99    5.83    0.00000     0.00  LINEAR    2.65342E-03    -3.87    0.00000E+00     0.00
   25.00    15.00       6.38 -999.99    6.38    0.00000     0.00  LINEAR    2.82805E-03    12.19    0.00000E+00     0.00
   30.00    15.00       5.53 -999.99    5.53    0.00000     0.00  LINEAR    2.56335E-03    23.52    0.00000E+00     0.00
   35.00    15.00       0.64 -999.99    0.64    0.00000     0.00  LINEAR    1.46070E-03    36.45    0.00000E+00     0.00
   40.00    15.00     -12.64 -999.99  -12.64    0.00000     0.00  LINEAR    3.16427E-04  -106.61    0.00000E+00     0.00
   45.00    15.00      -1.63 -999.99   -1.63    0.00000     0.00  LINEAR    1.12488E-03  -110.07    0.00000E+00     0.00
   50.00    15.00      -6.79 -999.99   -6.79    0.00000     0.00  LINEAR    6.20478E-04   -96.81    0.00000E+00     0.00
   55.00    15.00      -5.08 -999.99   -5.08    0.00000     0.00  LINEAR    7.56221E-04    88.69    0.00000E+00     0.00
   60.00    15.00       2.25 -999.99    2.25    0.00000     0.00  LINEAR    1.75715E-03   100.17    0.00000E+00     0.00
   65.00    15.00      -2.08 -999.99   -2.08    0.00000     0.00  LINEAR    1.06813E-03   113.71    0.00000E+00     0.00
   70.00    15.00      -9.86 -999.99   -9.86    0.00000     0.00  LINEAR    4.36195E-04   -80.49    0.00000E+00     0.00
   75.00    15.00      -5.96 -999.99   -5.96    0.00000     0.00  LINEAR    6.83269E-04   -61.51    0.00000E+00     0.00
   80.00    15.00      -7.80 -999.99   -7.80    0.00000     0.00  LINEAR    5.52373E-04   128.23    0.00000E+00     0.00
   85.00    15.00       0.13 -999.99    0.13    0.00000     0.00  LINEAR    1.37784E-03   133.38    0.00000E+00     0.00
   90.00    15.00      -8.12 -999.99   -8.12    0.00000     0.00  LINEAR    5.32750E-04   150.81    0.00000E+00     0.00
    0.00    20.00    -999.99 -999.99 -999.99    0.00000     0.00            0.00000E+00     0.00    0.00000E+00     0.00
    5.00    20.00      -5.65 -999.99   -5.65    0.00000     0.00  LINEAR    7.08259E-04   -62.64    0.00000E+00     0.00
   10.00    20.00       1.08 -999.99    1.08    0.00000     0.00  LINEAR    1.53668E-03   -59.24    0.00000E+00     0.00
   15.00    20.00       4.79 -999.99    4.79    0.00000     0.00  LINEAR    2.35600E-03   -51.80    0.00000E+00     0.00
   20.00    20.00       5.85 -999.99    5.85    0.00000     0.00  LINEAR    2.66117E-03   -36.40    0.00000E+00     0.00
   25.00    20.00       6.33 -999.99    6.33    0.00000     0.00  LINEAR    2.81149E-03   -26.63    0.00000E+00     0.00
   30.00    20.00       5.70 -999.99    5.70    0.00000     0.00  LINEAR    2.61642E-03   -19.82    0.00000E+00     0.00
   35.00    20.00       0.81 -999.99    0.81    0.00000     0.00  LINEAR    1.48993E-03   -13.49    0.00000E+00     0.00
   40.00    20.00     -12.45 -999.99  -12.45    0.00000     0.00  LINEAR    3.23750E-04  -126.23    0.00000E+00     0.00
   45.00    20.00      -1.88 -999.99   -1.88    0.00000     0.00  LINEAR    1.09273E-03  -163.15    0.00000E+00     0.00
   50.00    20.00      -6.89 -999.99   -6.89    0.00000     0.00  LINEAR    6.13957E-04  -159.05    0.00000E+00     0.00
   55.00    20.00      -4.24 -999.99   -4.24    0.00000     0.00  LINEAR    8.32843E-04    25.81    0.00000E+00     0.00
   60.00    20.00       2.69 -999.99    2.69    0.00000     0.00  LINEAR    1.84939E-03    33.90    0.00000E+00     0.00
   65.00    20.00      -1.50 -999.99   -1.50    0.00000     0.00  LINEAR    1.14125E-03    45.74    0.00000E+00     0.00
   70.00    20.00      -9.46 -999.99   -9.46    0.00000     0.00  LINEAR    4.56575E-04  -171.87    0.00000E+00     0.00
   75.00    20.00      -6.24 -999.99   -6.24    0.00000     0.00  LINEAR    6.61038E-04  -149.98    0.00000E+00     0.00
   80.00    20.00      -6.72 -999.99   -6.72    0.00000     0.00  LINEAR    6.26073E-04    48.51    0.00000E+00     0.00
   85.00    20.00       0.68 -999.99    0.68    0.00000     0.00  LINEAR    1.46782E-03    50.04    0.00000E+00     0.00
   90.00    20.00      -6.80 -999.99   -6.80    0.00000     0.00  LINEAR    6.20227E-04    72.36    0.00000E+00     0.00
    0.00    25.00    -999.99 -999.99 -999.99    0.00000     0.00            0.00000E+00     0.00    0.00000E+00     0.00
    5.00    25.00      -5.72 -999.99   -5.72    0.00000     0.00  LINEAR    7.02406E-04   -70.22    0.00000E+00     0.00
   10.00    25.00       1.13 -999.99    1.13    0.00000     0.00  LINEAR    1.54530E-03   -74.08    0.00000E+00     0.00
   15.00    25.00       5.19 -999.99    5.19    0.00000     0.00  LINEAR    2.46470E-03   -73.80    0.00000E+00     0.00
   20.00    25.00       6.23 -999.99    6.23    0.00000     0.00  LINEAR    2.77844E-03   -68.36    0.00000E+00     0.00
   25.00    25.00       6.57 -999.99    6.57    0.00000     0.00  LINEAR    2.88909E-03   -65.72    0.00000E+00     0.00
   30.00    25.00       5.81 -999.99    5.81    0.00000     0.00  LINEAR    2.64692E-03   -63.02    0.00000E+00     0.00
   35.00    25.00       0.96 -999.99    0.96    0.00000     0.00  LINEAR    1.51495E-03   -62.38    0.00000E+00     0.00
   40.00    25.00     -14.82 -999.99  -14.82    0.00000     0.00  LINEAR    2.46366E-04  -153.08    0.00000E+00     0.00
   45.00    25.00      -2.85 -999.99   -2.85    0.00000     0.00  LINEAR    9.77575E-04   134.47    0.00000E+00     0.00
   50.00    25.00      -7.33 -999.99   -7.33    0.00000     0.00  LINEAR    5.83464E-04   133.43    0.00000E+00     0.00
   55.00    25.00      -5.14 -999.99   -5.14    0.00000     0.00  LINEAR    7.50805E-04   -44.00    0.00000E+00     0.00
   60.00    25.00       1.64 -999.99    1.64    0.00000     0.00  LINEAR    1.63944E-03   -36.65    0.00000E+00     0.00
   65.00    25.00      -3.02 -999.99   -3.02    0.00000     0.00  LINEAR    9.57788E-04   -22.92    0.00000E+00     0.00
   70.00    25.00      -7.74 -999.99   -7.74    0.00000     0.00  LINEAR    5.56195E-04   111.51    0.00000E+00     0.00
   75.00    25.00      -6.42 -999.99   -6.42    0.00000     0.00  LINEAR    6.48106E-04   130.04    0.00000E+00     0.00
   80.00    25.00      -6.26 -999.99   -6.26    0.00000     0.00  LINEAR    6.60133E-04   -40.43    0.00000E+00     0.00
   85.00    25.00       0.75 -999.99    0.75    0.00000     0.00  LINEAR    1.47980E-03   -37.77    0.00000E+00     0.00
   90.00    25.00      -6.91 -999.99   -6.91    0.00000     0.00  LINEAR    6.12519E-04   -15.64    0.00000E+00     0.00
    0.00    30.00    -999.99 -999.99 -999.99    0.00000     0.00            0.00000E+00     0.00    0.00000E+00     0.00
    5.00    30.00      -5.79 -999.99   -5.79    0.00000     0.00  LINEAR    6.96655E-04   -77.86    0.00000E+00     0.00
   10.00    30.00       1.13 -999.99    1.13    0.00000     0.00  LINEAR    1.54491E-03   -88.87    0.00000E+00     0.00
   15.00    30.00       5.46 -999.99    5.46    0.00000     0.00  LINEAR    2.54411E-03   -94.75    0.00000E+00     0.00
   20.00    30.00       6.68 -999.99    6.68    0.00000     0.00  LINEAR    2.92778E-03   -98.09    0.00000E+00     0.00
   25.00    30.00       6.98 -999.99    6.98    0.00000     0.00  LINEAR    3.03066E-03  -103.05    0.00000E+00     0.00
   30.00    30.00       5.93 -999.99    5.93    0.00000     0.00  LINEAR    2.68608E-03  -106.21    0.00000E+00     0.00
   35.00    30.00       1.01 -999.99    1.01    0.00000     0.00  LINEAR    1.52320E-03  -110.80    0.00000E+00     0.00
   40.00    30.00     -19.92 -999.99  -19.92    0.00000     0.00  LINEAR    1.36893E-04   177.92    0.00000E+00     0.00
   45.00    30.00      -3.20 -999.99   -3.20    0.00000     0.00  LINEAR    9.38693E-04    66.76    0.00000E+00     0.00
   50.00    30.00      -7.09 -999.99   -7.09    0.00000     0.00  LINEAR    5.99820E-04    59.78    0.00000E+00     0.00
   55.00    30.00      -5.41 -999.99   -5.41    0.00000     0.00  LINEAR    7.28097E-04  -116.49    0.00000E+00     0.00
   60.00    30.00       1.20 -999.99    1.20    0.00000     0.00  LINEAR    1.55826E-03  -116.09    0.00000E+00     0.00
   65.00    30.00      -4.32 -999.99   -4.32    0.00000     0.00  LINEAR    8.24949E-04  -114.02    0.00000E+00     0.00
   70.00    30.00      -8.67 -999.99   -8.67    0.00000     0.00  LINEAR    4.99992E-04    45.31    0.00000E+00     0.00
   75.00    30.00      -7.38 -999.99   -7.38    0.00000     0.00  LINEAR    5.80300E-04    43.65    0.00000E+00     0.00
   80.00    30.00      -5.72 -999.99   -5.72    0.00000     0.00  LINEAR    7.02360E-04  -122.33    0.00000E+00     0.00
   85.00    30.00       0.80 -999.99    0.80    0.00000     0.00  LINEAR    1.48672E-03  -124.16    0.00000E+00     0.00
   90.00    30.00      -6.47 -999.99   -6.47    0.00000     0.00  LINEAR    6.44345E-04  -101.24    0.00000E+00     0.00
    0.00    35.00    -999.99 -999.99 -999.99    0.00000     0.00            0.00000E+00     0.00    0.00000E+00     0.00
    5.00    35.00      -5.86 -999.99   -5.86    0.00000     0.00  LINEAR    6.91317E-04   -85.50    0.00000E+00     0.00
   10.00    35.00       1.08 -999.99    1.08    0.00000     0.00  LINEAR    1.53587E-03  -103.66    0.00000E+00     0.00
   15.00    35.00       5.55 -999.99    5.55    0.00000     0.00  LINEAR    2.57087E-03  -115.17    0.00000E+00     0.00
   20.00    35.00       6.92 -999.99    6.92    0.00000     0.00  LINEAR    3.00970E-03  -126.11    0.00000E+00     0.00
   25.00    35.00       7.23 -999.99    7.23    0.00000     0.00  LINEAR    3.11952E-03  -138.38    0.00000E+00     0.00
   30.00    35.00       6.05 -999.99    6.05    0.00000     0.00  LINEAR    2.72130E-03  -148.34    0.00000E+00     0.00
   35.00    35.00       0.98 -999.99    0.98    0.00000     0.00  LINEAR    1.51907E-03  -158.54    0.00000E+00     0.00
   40.00    35.00     -32.49 -999.99  -32.49    0.00000     0.00  LINEAR    3.22235E-05   147.85    0.00000E+00     0.00
   45.00    35.00      -2.81 -999.99   -2.81    0.00000     0.00  LINEAR    9.81438E-04    -1.55    0.00000E+00     0.00
   50.00    35.00      -5.89 -999.99   -5.89    0.00000     0.00  LINEAR    6.88299E-04   -11.55    0.00000E+00     0.00
   55.00    35.00      -6.68 -999.99   -6.68    0.00000     0.00  LINEAR    6.28969E-04   161.00    0.00000E+00     0.00
   60.00    35.00       0.66 -999.99    0.66    0.00000     0.00  LINEAR    1.46305E-03   161.97    0.00000E+00     0.00
   65.00    35.00      -3.13 -999.99   -3.13    0.00000     0.00  LINEAR    9.46423E-04   163.63    0.00000E+00     0.00
   70.00    35.00     -13.35 -999.99  -13.35    0.00000     0.00  LINEAR    2.91715E-04   -58.49    0.00000E+00     0.00
   75.00    35.00      -7.69 -999.99   -7.69    0.00000     0.00  LINEAR    5.59760E-04   -47.09    0.00000E+00     0.00
   80.00    35.00      -7.72 -999.99   -7.72    0.00000     0.00  LINEAR    5.57811E-04   155.12    0.00000E+00     0.00
   85.00    35.00       0.00 -999.99    0.00    0.00000     0.00  LINEAR    1.35628E-03   149.94    0.00000E+00     0.00
   90.00    35.00      -7.04 -999.99   -7.04    0.00000     0.00  LINEAR    6.03368E-04   175.26    0.00000E+00     0.00
    0.00    40.00    -999.99 -999.99 -999.99    0.00000     0.00            0.00000E+00     0.00    0.00000E+00     0.00
    5.00    40.00      -5.91 -999.99   -5.91    0.00000     0.00  LINEAR    6.86665E-04   -93.07    0.00000E+00     0.00
   10.00    40.00       0.99 -999.99    0.99    0.00000     0.00  LINEAR    1.52105E-03  -118.44    0.00000E+00     0.00
   15.00    40.00       5.47 -999.99    5.47    0.00000     0.00  LINEAR    2.54728E-03  -135.62    0.00000E+00     0.00
   20.00    40.00       6.89 -999.99    6.89    0.00000     0.00  LINEAR    2.99737E-03  -153.91    0.00000E+00     0.00
   25.00    40.00       7.19 -999.99    7.19    0.00000     0.00  LINEAR    3.10365E-03  -173.58    0.00000E+00     0.00
   30.00    40.00       5.98 -999.99    5.98    0.00000     0.00  LINEAR    2.70008E-03   169.99    0.00000E+00     0.00
   35.00    40.00       0.83 -999.99    0.83    0.00000     0.00  LINEAR    1.49316E-03   154.00    0.00000E+00     0.00
   40.00    40.00     -38.39 -999.99  -38.39    0.00000     0.00  LINEAR    1.63233E-05    30.06    0.00000E+00     0.00
   45.00    40.00      -2.38 -999.99   -2.38    0.00000     0.00  LINEAR    1.03169E-03   -61.86    0.00000E+00     0.00
   50.00    40.00      -4.97 -999.99   -4.97    0.00000     0.00  LINEAR    7.65114E-04   -77.58    0.00000E+00     0.00
   55.00    40.00      -4.20 -999.99   -4.20    0.00000     0.00  LINEAR    8.36506E-04    87.46    0.00000E+00     0.00
   60.00    40.00       2.45 -999.99    2.45    0.00000     0.00  LINEAR    1.79778E-03    80.03    0.00000E+00     0.00
   65.00    40.00      -2.66 -999.99   -2.66    0.00000     0.00  LINEAR    9.99247E-04    77.47    0.00000E+00     0.00
   70.00    40.00      -9.08 -999.99   -9.08    0.00000     0.00  LINEAR    4.76965E-04  -137.94    0.00000E+00     0.00
   75.00    40.00      -5.97 -999.99   -5.97    0.00000     0.00  LINEAR    6.82278E-04  -128.92    0.00000E+00     0.00
   80.00    40.00      -7.36 -999.99   -7.36    0.00000     0.00  LINEAR    5.81189E-04    52.18    0.00000E+00     0.00
   85.00    40.00       0.42 -999.99    0.42    0.00000     0.00  LINEAR    1.42357E-03    54.91    0.00000E+00     0.00
   90.00    40.00      -7.53 -999.99   -7.53    0.00000     0.00  LINEAR    5.70152E-04    78.14    0.00000E+00     0.00
    0.00    45.00    -999.99 -999.99 -999.99    0.00000     0.00            0.00000E+00     0.00    0.00000E+00     0.00
    5.00    45.00      -5.96 -999.99   -5.96    0.00000     0.00  LINEAR    6.82894E-04  -100.47    0.00000E+00     0.00
   10.00    45.00       0.90 -999.99    0.90    0.00000     0.00  LINEAR    1.50437E-03  -133.13    0.00000E+00     0.00
   15.00    45.00       5.29 -999.99    5.29    0.00000     0.00  LINEAR    2.49497E-03  -156.33    0.00000E+00     0.00
   20.00    45.00       6.73 -999.99    6.73    0.00000     0.00  LINEAR    2.94300E-03   177.72    0.00000E+00     0.00
   25.00    45.00       7.09 -999.99    7.09    0.00000     0.00  LINEAR    3.06752E-03   150.27    0.00000E+00     0.00
   30.00    45.00       5.87 -999.99    5.87    0.00000     0.00  LINEAR    2.66806E-03   127.73    0.00000E+00     0.00
   35.00    45.00       0.66 -999.99    0.66    0.00000     0.00  LINEAR    1.46317E-03   106.24    0.00000E+00     0.00
   40.00    45.00     -31.48 -999.99  -31.48    0.00000     0.00  LINEAR    3.61927E-05    53.03    0.00000E+00     0.00
   45.00    45.00      -3.23 -999.99   -3.23    0.00000     0.00  LINEAR    9.35613E-04  -120.83    0.00000E+00     0.00
   50.00    45.00      -4.76 -999.99   -4.76    0.00000     0.00  LINEAR    7.84317E-04  -139.37    0.00000E+00     0.00
   55.00    45.00      -5.18 -999.99   -5.18    0.00000     0.00  LINEAR    7.47227E-04    33.74    0.00000E+00     0.00
   60.00    45.00       2.63 -999.99    2.63    0.00000     0.00  LINEAR    1.83723E-03    17.38    0.00000E+00     0.00
   65.00    45.00      -1.55 -999.99   -1.55    0.00000     0.00  LINEAR    1.13471E-03     4.99    0.00000E+00     0.00
   70.00    45.00     -11.04 -999.99  -11.04    0.00000     0.00  LINEAR    3.80782E-04   152.68    0.00000E+00     0.00
   75.00    45.00      -6.27 -999.99   -6.27    0.00000     0.00  LINEAR    6.59446E-04   152.15    0.00000E+00     0.00
   80.00    45.00      -6.81 -999.99   -6.81    0.00000     0.00  LINEAR    6.19365E-04   -21.17    0.00000E+00     0.00
   85.00    45.00       0.75 -999.99    0.75    0.00000     0.00  LINEAR    1.47944E-03   -24.35    0.00000E+00     0.00
   90.00    45.00      -6.80 -999.99   -6.80    0.00000     0.00  LINEAR    6.19823E-04    -3.49    0.00000E+00     0.00
    0.00    50.00    -999.99 -999.99 -999.99    0.00000     0.00            0.00000E+00     0.00    0.00000E+00     0.00
    5.00    50.00      -6.00 -999.99   -6.00    0.00000     0.00  LINEAR    6.80085E-04  -107.62    0.00000E+00     0.00
   10.00    50.00       0.81 -999.99    0.81    0.00000     0.00  LINEAR    1.48888E-03  -147.52    0.00000E+00     0.00
   15.00    50.00       5.09 -999.99    5.09    0.00000     0.00  LINEAR    2.43724E-03  -177.12    0.00000E+00     0.00
   20.00    50.00       6.60 -999.99    6.60    0.00000     0.00  LINEAR    2.90204E-03   149.38    0.00000E+00     0.00
   25.00    50.00       7.11 -999.99    7.11    0.00000     0.00  LINEAR    3.07745E-03   114.63    0.00000E+00     0.00
   30.00    50.00       5.84 -999.99    5.84    0.00000     0.00  LINEAR    2.65655E-03    86.06    0.00000E+00     0.00
   35.00    50.00       0.50 -999.99    0.50    0.00000     0.00  LINEAR    1.43685E-03    58.44    0.00000E+00     0.00
   40.00    50.00     -27.61 -999.99  -27.61    0.00000     0.00  LINEAR    5.65196E-05    -5.04    0.00000E+00     0.00
   45.00    50.00      -4.00 -999.99   -4.00    0.00000     0.00  LINEAR    8.55957E-04   178.82    0.00000E+00     0.00
   50.00    50.00      -6.15 -999.99   -6.15    0.00000     0.00  LINEAR    6.68579E-04   161.91    0.00000E+00     0.00
   55.00    50.00      -6.60 -999.99   -6.60    0.00000     0.00  LINEAR    6.34553E-04   -42.15    0.00000E+00     0.00
   60.00    50.00       1.06 -999.99    1.06    0.00000     0.00  LINEAR    1.53289E-03   -55.27    0.00000E+00     0.00
[...]
   40.00   315.00     -31.09 -999.99  -31.09    0.00000     0.00  LINEAR    3.78445E-05  -103.18    0.00000E+00     0.00
   45.00   315.00      -3.49 -999.99   -3.49    0.00000     0.00  LINEAR    9.07835E-04    66.19    0.00000E+00     0.00
   50.00   315.00      -4.69 -999.99   -4.69    0.00000     0.00  LINEAR    7.90188E-04   131.16    0.00000E+00     0.00
   55.00   315.00      -6.95 -999.99   -6.95    0.00000     0.00  LINEAR    6.09724E-04    -1.37    0.00000E+00     0.00
   60.00   315.00       3.14 -999.99    3.14    0.00000     0.00  LINEAR    1.94733E-03    37.42    0.00000E+00     0.00
   65.00   315.00      -1.55 -999.99   -1.55    0.00000     0.00  LINEAR    1.13457E-03    67.56    0.00000E+00     0.00
   70.00   315.00      -7.26 -999.99   -7.26    0.00000     0.00  LINEAR    5.88197E-04   -88.18    0.00000E+00     0.00
   75.00   315.00      -5.61 -999.99   -5.61    0.00000     0.00  LINEAR    7.11225E-04   -64.37    0.00000E+00     0.00
   80.00   315.00      -6.63 -999.99   -6.63    0.00000     0.00  LINEAR    6.32723E-04   153.60    0.00000E+00     0.00
   85.00   315.00       0.52 -999.99    0.52    0.00000     0.00  LINEAR    1.44065E-03   166.06    0.00000E+00     0.00
   90.00   315.00      -6.78 -999.99   -6.78    0.00000     0.00  LINEAR    6.21404E-04  -165.99    0.00000E+00     0.00
    0.00   320.00    -999.99 -999.99 -999.99    0.00000     0.00            0.00000E+00     0.00    0.00000E+00     0.00
    5.00   320.00      -5.26 -999.99   -5.26    0.00000     0.00  LINEAR    7.40600E-04     6.13    0.00000E+00     0.00
   10.00   320.00       0.69 -999.99    0.69    0.00000     0.00  LINEAR    1.46896E-03    87.01    0.00000E+00     0.00
   15.00   320.00       4.81 -999.99    4.81    0.00000     0.00  LINEAR    2.35984E-03   166.98    0.00000E+00     0.00
   20.00   320.00       7.18 -999.99    7.18    0.00000     0.00  LINEAR    3.10027E-03  -119.96    0.00000E+00     0.00
   25.00   320.00       6.59 -999.99    6.59    0.00000     0.00  LINEAR    2.89785E-03   -45.92    0.00000E+00     0.00
   30.00   320.00       5.31 -999.99    5.31    0.00000     0.00  LINEAR    2.50015E-03    30.41    0.00000E+00     0.00
   35.00   320.00       0.53 -999.99    0.53    0.00000     0.00  LINEAR    1.44190E-03    97.68    0.00000E+00     0.00
   40.00   320.00     -72.42 -999.99  -72.42    0.00000     0.00  LINEAR    3.24689E-07   139.98    0.00000E+00     0.00
   45.00   320.00      -3.49 -999.99   -3.49    0.00000     0.00  LINEAR    9.07929E-04    43.43    0.00000E+00     0.00
   50.00   320.00      -5.55 -999.99   -5.55    0.00000     0.00  LINEAR    7.15993E-04   109.73    0.00000E+00     0.00
   55.00   320.00      -7.40 -999.99   -7.40    0.00000     0.00  LINEAR    5.78477E-04   -43.26    0.00000E+00     0.00
   60.00   320.00       1.81 -999.99    1.81    0.00000     0.00  LINEAR    1.67095E-03     9.75    0.00000E+00     0.00
   65.00   320.00      -2.35 -999.99   -2.35    0.00000     0.00  LINEAR    1.03545E-03    48.85    0.00000E+00     0.00
   70.00   320.00      -9.09 -999.99   -9.09    0.00000     0.00  LINEAR    4.76376E-04  -130.83    0.00000E+00     0.00
   75.00   320.00      -6.54 -999.99   -6.54    0.00000     0.00  LINEAR    6.39129E-04   -94.04    0.00000E+00     0.00
   80.00   320.00      -8.47 -999.99   -8.47    0.00000     0.00  LINEAR    5.11665E-04   123.20    0.00000E+00     0.00
   85.00   320.00      -0.62 -999.99   -0.62    0.00000     0.00  LINEAR    1.26251E-03   136.52    0.00000E+00     0.00
   90.00   320.00      -7.52 -999.99   -7.52    0.00000     0.00  LINEAR    5.70840E-04   167.20    0.00000E+00     0.00
    0.00   325.00    -999.99 -999.99 -999.99    0.00000     0.00            0.00000E+00     0.00    0.00000E+00     0.00
    5.00   325.00      -5.27 -999.99   -5.27    0.00000     0.00  LINEAR    7.39332E-04     2.83    0.00000E+00     0.00
   10.00   325.00       0.64 -999.99    0.64    0.00000     0.00  LINEAR    1.46086E-03    79.99    0.00000E+00     0.00
   15.00   325.00       4.60 -999.99    4.60    0.00000     0.00  LINEAR    2.30327E-03   156.58    0.00000E+00     0.00
   20.00   325.00       6.89 -999.99    6.89    0.00000     0.00  LINEAR    2.99883E-03  -132.37    0.00000E+00     0.00
   25.00   325.00       6.54 -999.99    6.54    0.00000     0.00  LINEAR    2.87888E-03   -62.61    0.00000E+00     0.00
   30.00   325.00       5.17 -999.99    5.17    0.00000     0.00  LINEAR    2.45904E-03     8.97    0.00000E+00     0.00
   35.00   325.00       0.48 -999.99    0.48    0.00000     0.00  LINEAR    1.43441E-03    73.24    0.00000E+00     0.00
   40.00   325.00     -33.84 -999.99  -33.84    0.00000     0.00  LINEAR    2.75738E-05   -12.85    0.00000E+00     0.00
   45.00   325.00      -2.98 -999.99   -2.98    0.00000     0.00  LINEAR    9.63187E-04    10.22    0.00000E+00     0.00
   50.00   325.00      -7.01 -999.99   -7.01    0.00000     0.00  LINEAR    6.05328E-04    69.28    0.00000E+00     0.00
   55.00   325.00      -5.17 -999.99   -5.17    0.00000     0.00  LINEAR    7.48087E-04   -76.39    0.00000E+00     0.00
   60.00   325.00       1.63 -999.99    1.63    0.00000     0.00  LINEAR    1.63630E-03   -23.97    0.00000E+00     0.00
   65.00   325.00      -1.92 -999.99   -1.92    0.00000     0.00  LINEAR    1.08776E-03    23.17    0.00000E+00     0.00
   70.00   325.00      -9.47 -999.99   -9.47    0.00000     0.00  LINEAR    4.55905E-04  -176.51    0.00000E+00     0.00
   75.00   325.00      -5.95 -999.99   -5.95    0.00000     0.00  LINEAR    6.83780E-04  -127.90    0.00000E+00     0.00
   80.00   325.00      -8.01 -999.99   -8.01    0.00000     0.00  LINEAR    5.39329E-04    80.57    0.00000E+00     0.00
   85.00   325.00       0.13 -999.99    0.13    0.00000     0.00  LINEAR    1.37728E-03    94.47    0.00000E+00     0.00
   90.00   325.00      -7.44 -999.99   -7.44    0.00000     0.00  LINEAR    5.76146E-04   124.80    0.00000E+00     0.00
    0.00   330.00    -999.99 -999.99 -999.99    0.00000     0.00            0.00000E+00     0.00    0.00000E+00     0.00
    5.00   330.00      -5.29 -999.99   -5.29    0.00000     0.00  LINEAR    7.38241E-04    -1.03    0.00000E+00     0.00
   10.00   330.00       0.61 -999.99    0.61    0.00000     0.00  LINEAR    1.45589E-03    71.61    0.00000E+00     0.00
   15.00   330.00       4.42 -999.99    4.42    0.00000     0.00  LINEAR    2.25718E-03   143.90    0.00000E+00     0.00
   20.00   330.00       6.66 -999.99    6.66    0.00000     0.00  LINEAR    2.92115E-03  -147.50    0.00000E+00     0.00
   25.00   330.00       6.72 -999.99    6.72    0.00000     0.00  LINEAR    2.94250E-03   -82.53    0.00000E+00     0.00
   30.00   330.00       5.34 -999.99    5.34    0.00000     0.00  LINEAR    2.51021E-03   -16.22    0.00000E+00     0.00
   35.00   330.00       0.59 -999.99    0.59    0.00000     0.00  LINEAR    1.45126E-03    45.11    0.00000E+00     0.00
   40.00   330.00     -21.96 -999.99  -21.96    0.00000     0.00  LINEAR    1.08307E-04   -86.21    0.00000E+00     0.00
   45.00   330.00      -2.28 -999.99   -2.28    0.00000     0.00  LINEAR    1.04393E-03   -27.42    0.00000E+00     0.00
   50.00   330.00      -6.60 -999.99   -6.60    0.00000     0.00  LINEAR    6.34383E-04    27.07    0.00000E+00     0.00
   55.00   330.00      -5.15 -999.99   -5.15    0.00000     0.00  LINEAR    7.49581E-04  -100.76    0.00000E+00     0.00
   60.00   330.00       1.56 -999.99    1.56    0.00000     0.00  LINEAR    1.62334E-03   -55.88    0.00000E+00     0.00
   65.00   330.00      -1.92 -999.99   -1.92    0.00000     0.00  LINEAR    1.08729E-03    -5.86    0.00000E+00     0.00
   70.00   330.00      -8.18 -999.99   -8.18    0.00000     0.00  LINEAR    5.28870E-04   137.96    0.00000E+00     0.00
   75.00   330.00      -5.84 -999.99   -5.84    0.00000     0.00  LINEAR    6.92587E-04  -168.58    0.00000E+00     0.00
   80.00   330.00      -7.26 -999.99   -7.26    0.00000     0.00  LINEAR    5.88196E-04    34.63    0.00000E+00     0.00
   85.00   330.00       0.58 -999.99    0.58    0.00000     0.00  LINEAR    1.45056E-03    49.47    0.00000E+00     0.00
   90.00   330.00      -7.05 -999.99   -7.05    0.00000     0.00  LINEAR    6.02478E-04    77.04    0.00000E+00     0.00
    0.00   335.00    -999.99 -999.99 -999.99    0.00000     0.00            0.00000E+00     0.00    0.00000E+00     0.00
    5.00   335.00      -5.30 -999.99   -5.30    0.00000     0.00  LINEAR    7.37215E-04    -5.43    0.00000E+00     0.00
   10.00   335.00       0.60 -999.99    0.60    0.00000     0.00  LINEAR    1.45420E-03    62.02    0.00000E+00     0.00
   15.00   335.00       4.32 -999.99    4.32    0.00000     0.00  LINEAR    2.23183E-03   129.41    0.00000E+00     0.00
   20.00   335.00       6.53 -999.99    6.53    0.00000     0.00  LINEAR    2.87601E-03  -164.96    0.00000E+00     0.00
   25.00   335.00       7.04 -999.99    7.04    0.00000     0.00  LINEAR    3.05199E-03  -104.20    0.00000E+00     0.00
   30.00   335.00       5.70 -999.99    5.70    0.00000     0.00  LINEAR    2.61397E-03   -42.74    0.00000E+00     0.00
   35.00   335.00       0.71 -999.99    0.71    0.00000     0.00  LINEAR    1.47159E-03    13.97    0.00000E+00     0.00
   40.00   335.00     -14.52 -999.99  -14.52    0.00000     0.00  LINEAR    2.55075E-04  -105.85    0.00000E+00     0.00
   45.00   335.00      -1.42 -999.99   -1.42    0.00000     0.00  LINEAR    1.15238E-03   -64.60    0.00000E+00     0.00
   50.00   335.00      -6.37 -999.99   -6.37    0.00000     0.00  LINEAR    6.51533E-04   -10.82    0.00000E+00     0.00
   55.00   335.00      -5.92 -999.99   -5.92    0.00000     0.00  LINEAR    6.85954E-04  -135.40    0.00000E+00     0.00
   60.00   335.00       1.02 -999.99    1.02    0.00000     0.00  LINEAR    1.52594E-03  -100.18    0.00000E+00     0.00
   65.00   335.00      -4.07 -999.99   -4.07    0.00000     0.00  LINEAR    8.48833E-04   -56.60    0.00000E+00     0.00
   70.00   335.00      -7.78 -999.99   -7.78    0.00000     0.00  LINEAR    5.53705E-04   107.81    0.00000E+00     0.00
   75.00   335.00      -6.17 -999.99   -6.17    0.00000     0.00  LINEAR    6.66637E-04   144.75    0.00000E+00     0.00
   80.00   335.00      -6.34 -999.99   -6.34    0.00000     0.00  LINEAR    6.54106E-04   -12.12    0.00000E+00     0.00
   85.00   335.00       0.86 -999.99    0.86    0.00000     0.00  LINEAR    1.49862E-03    -0.28    0.00000E+00     0.00
   90.00   335.00      -6.86 -999.99   -6.86    0.00000     0.00  LINEAR    6.16089E-04    25.32    0.00000E+00     0.00
    0.00   340.00    -999.99 -999.99 -999.99    0.00000     0.00            0.00000E+00     0.00    0.00000E+00     0.00
    5.00   340.00      -5.31 -999.99   -5.31    0.00000     0.00  LINEAR    7.36107E-04   -10.31    0.00000E+00     0.00
   10.00   340.00       0.61 -999.99    0.61    0.00000     0.00  LINEAR    1.45502E-03    51.36    0.00000E+00     0.00
   15.00   340.00       4.30 -999.99    4.30    0.00000     0.00  LINEAR    2.22592E-03   113.61    0.00000E+00     0.00
   20.00   340.00       6.46 -999.99    6.46    0.00000     0.00  LINEAR    2.85420E-03   175.54    0.00000E+00     0.00
   25.00   340.00       7.28 -999.99    7.28    0.00000     0.00  LINEAR    3.13655E-03  -127.32    0.00000E+00     0.00
   30.00   340.00       5.90 -999.99    5.90    0.00000     0.00  LINEAR    2.67635E-03   -70.61    0.00000E+00     0.00
   35.00   340.00       0.84 -999.99    0.84    0.00000     0.00  LINEAR    1.49468E-03   -20.14    0.00000E+00     0.00
   40.00   340.00     -12.12 -999.99  -12.12    0.00000     0.00  LINEAR    3.36252E-04  -115.08    0.00000E+00     0.00
   45.00   340.00      -1.09 -999.99   -1.09    0.00000     0.00  LINEAR    1.19718E-03   -98.92    0.00000E+00     0.00
   50.00   340.00      -6.45 -999.99   -6.45    0.00000     0.00  LINEAR    6.45337E-04   -53.20    0.00000E+00     0.00
   55.00   340.00      -6.94 -999.99   -6.94    0.00000     0.00  LINEAR    6.10446E-04   175.43    0.00000E+00     0.00
   60.00   340.00       0.66 -999.99    0.66    0.00000     0.00  LINEAR    1.46425E-03  -155.65    0.00000E+00     0.00
   65.00   340.00      -4.30 -999.99   -4.30    0.00000     0.00  LINEAR    8.27255E-04  -121.86    0.00000E+00     0.00
   70.00   340.00      -9.57 -999.99   -9.57    0.00000     0.00  LINEAR    4.50596E-04    51.36    0.00000E+00     0.00
   75.00   340.00      -6.74 -999.99   -6.74    0.00000     0.00  LINEAR    6.24555E-04    83.18    0.00000E+00     0.00
   80.00   340.00      -7.18 -999.99   -7.18    0.00000     0.00  LINEAR    5.93671E-04   -67.79    0.00000E+00     0.00
   85.00   340.00       0.31 -999.99    0.31    0.00000     0.00  LINEAR    1.40598E-03   -59.68    0.00000E+00     0.00
   90.00   340.00      -7.66 -999.99   -7.66    0.00000     0.00  LINEAR    5.61471E-04   -32.62    0.00000E+00     0.00
    0.00   345.00    -999.99 -999.99 -999.99    0.00000     0.00            0.00000E+00     0.00    0.00000E+00     0.00
    5.00   345.00      -5.33 -999.99   -5.33    0.00000     0.00  LINEAR    7.34743E-04   -15.66    0.00000E+00     0.00
   10.00   345.00       0.62 -999.99    0.62    0.00000     0.00  LINEAR    1.45741E-03    39.74    0.00000E+00     0.00
   15.00   345.00       4.31 -999.99    4.31    0.00000     0.00  LINEAR    2.22934E-03    96.79    0.00000E+00     0.00
   20.00   345.00       6.44 -999.99    6.44    0.00000     0.00  LINEAR    2.84729E-03   154.14    0.00000E+00     0.00
   25.00   345.00       7.35 -999.99    7.35    0.00000     0.00  LINEAR    3.16336E-03  -152.48    0.00000E+00     0.00
   30.00   345.00       5.90 -999.99    5.90    0.00000     0.00  LINEAR    2.67463E-03  -101.31    0.00000E+00     0.00
   35.00   345.00       1.00 -999.99    1.00    0.00000     0.00  LINEAR    1.52147E-03   -56.51    0.00000E+00     0.00
   40.00   345.00     -13.31 -999.99  -13.31    0.00000     0.00  LINEAR    2.93041E-04  -123.22    0.00000E+00     0.00
   45.00   345.00      -1.84 -999.99   -1.84    0.00000     0.00  LINEAR    1.09736E-03  -136.00    0.00000E+00     0.00
   50.00   345.00      -6.80 -999.99   -6.80    0.00000     0.00  LINEAR    6.19756E-04   -99.56    0.00000E+00     0.00
   55.00   345.00      -5.85 -999.99   -5.85    0.00000     0.00  LINEAR    6.91830E-04   110.95    0.00000E+00     0.00
   60.00   345.00       1.43 -999.99    1.43    0.00000     0.00  LINEAR    1.60002E-03   142.22    0.00000E+00     0.00
   65.00   345.00      -3.30 -999.99   -3.30    0.00000     0.00  LINEAR    9.27738E-04   173.60    0.00000E+00     0.00
   70.00   345.00      -8.77 -999.99   -8.77    0.00000     0.00  LINEAR    4.94142E-04    -5.87    0.00000E+00     0.00
   75.00   345.00      -5.28 -999.99   -5.28    0.00000     0.00  LINEAR    7.38420E-04    22.54    0.00000E+00     0.00
   80.00   345.00      -7.10 -999.99   -7.10    0.00000     0.00  LINEAR    5.99018E-04  -122.92    0.00000E+00     0.00
   85.00   345.00       0.96 -999.99    0.96    0.00000     0.00  LINEAR    1.51489E-03  -118.40    0.00000E+00     0.00
   90.00   345.00      -7.69 -999.99   -7.69    0.00000     0.00  LINEAR    5.59882E-04   -92.03    0.00000E+00     0.00
    0.00   350.00    -999.99 -999.99 -999.99    0.00000     0.00            0.00000E+00     0.00    0.00000E+00     0.00
    5.00   350.00      -5.35 -999.99   -5.35    0.00000     0.00  LINEAR    7.32950E-04   -21.43    0.00000E+00     0.00
   10.00   350.00       0.64 -999.99    0.64    0.00000     0.00  LINEAR    1.46097E-03    27.24    0.00000E+00     0.00
   15.00   350.00       4.32 -999.99    4.32    0.00000     0.00  LINEAR    2.22966E-03    79.03    0.00000E+00     0.00
   20.00   350.00       6.46 -999.99    6.46    0.00000     0.00  LINEAR    2.85403E-03   131.06    0.00000E+00     0.00
   25.00   350.00       7.31 -999.99    7.31    0.00000     0.00  LINEAR    3.14894E-03   179.94    0.00000E+00     0.00
   30.00   350.00       5.85 -999.99    5.85    0.00000     0.00  LINEAR    2.66099E-03  -135.30    0.00000E+00     0.00
   35.00   350.00       1.04 -999.99    1.04    0.00000     0.00  LINEAR    1.52994E-03   -94.90    0.00000E+00     0.00
   40.00   350.00     -17.80 -999.99  -17.80    0.00000     0.00  LINEAR    1.74760E-04  -136.23    0.00000E+00     0.00
   45.00   350.00      -3.17 -999.99   -3.17    0.00000     0.00  LINEAR    9.42079E-04   176.54    0.00000E+00     0.00
   50.00   350.00      -7.46 -999.99   -7.46    0.00000     0.00  LINEAR    5.75033E-04  -153.46    0.00000E+00     0.00
   55.00   350.00      -3.91 -999.99   -3.91    0.00000     0.00  LINEAR    8.65195E-04    60.03    0.00000E+00     0.00
   60.00   350.00       2.38 -999.99    2.38    0.00000     0.00  LINEAR    1.78415E-03    86.72    0.00000E+00     0.00
   65.00   350.00      -2.28 -999.99   -2.28    0.00000     0.00  LINEAR    1.04323E-03   116.47    0.00000E+00     0.00
   70.00   350.00      -9.83 -999.99   -9.83    0.00000     0.00  LINEAR    4.37504E-04   -67.84    0.00000E+00     0.00
   75.00   350.00      -5.65 -999.99   -5.65    0.00000     0.00  LINEAR    7.07529E-04   -36.44    0.00000E+00     0.00
   80.00   350.00      -9.04 -999.99   -9.04    0.00000     0.00  LINEAR    4.78902E-04   166.66    0.00000E+00     0.00
   85.00   350.00      -0.33 -999.99   -0.33    0.00000     0.00  LINEAR    1.30652E-03   174.76    0.00000E+00     0.00
   90.00   350.00      -9.09 -999.99   -9.09    0.00000     0.00  LINEAR    4.76272E-04  -164.03    0.00000E+00     0.00
    0.00   355.00    -999.99 -999.99 -999.99    0.00000     0.00            0.00000E+00     0.00    0.00000E+00     0.00
    5.00   355.00      -5.38 -999.99   -5.38    0.00000     0.00  LINEAR    7.30574E-04   -27.57    0.00000E+00     0.00
   10.00   355.00       0.68 -999.99    0.68    0.00000     0.00  LINEAR    1.46631E-03    13.93    0.00000E+00     0.00
   15.00   355.00       4.27 -999.99    4.27    0.00000     0.00  LINEAR    2.21875E-03    60.15    0.00000E+00     0.00
   20.00   355.00       6.50 -999.99    6.50    0.00000     0.00  LINEAR    2.86782E-03   106.74    0.00000E+00     0.00
   25.00   355.00       7.22 -999.99    7.22    0.00000     0.00  LINEAR    3.11367E-03   150.18    0.00000E+00     0.00
   30.00   355.00       5.85 -999.99    5.85    0.00000     0.00  LINEAR    2.66021E-03  -171.53    0.00000E+00     0.00
   35.00   355.00       0.96 -999.99    0.96    0.00000     0.00  LINEAR    1.51564E-03  -136.09    0.00000E+00     0.00
   40.00   355.00     -25.63 -999.99  -25.63    0.00000     0.00  LINEAR    7.09339E-05  -167.13    0.00000E+00     0.00
   45.00   355.00      -3.51 -999.99   -3.51    0.00000     0.00  LINEAR    9.06046E-04   119.75    0.00000E+00     0.00
   50.00   355.00      -7.37 -999.99   -7.37    0.00000     0.00  LINEAR    5.80808E-04   147.28    0.00000E+00     0.00
   55.00   355.00      -4.22 -999.99   -4.22    0.00000     0.00  LINEAR    8.34347E-04    10.10    0.00000E+00     0.00
   60.00   355.00       2.13 -999.99    2.13    0.00000     0.00  LINEAR    1.73444E-03    28.71    0.00000E+00     0.00
   65.00   355.00      -2.65 -999.99   -2.65    0.00000     0.00  LINEAR    1.00042E-03    52.14    0.00000E+00     0.00
   70.00   355.00     -10.02 -999.99  -10.02    0.00000     0.00  LINEAR    4.28195E-04  -131.80    0.00000E+00     0.00
   75.00   355.00      -6.30 -999.99   -6.30    0.00000     0.00  LINEAR    6.57090E-04  -109.96    0.00000E+00     0.00
   80.00   355.00      -7.03 -999.99   -7.03    0.00000     0.00  LINEAR    6.04009E-04    96.25    0.00000E+00     0.00
   85.00   355.00       0.59 -999.99    0.59    0.00000     0.00  LINEAR    1.45154E-03   100.48    0.00000E+00     0.00
   90.00   355.00      -7.08 -999.99   -7.08    0.00000     0.00  LINEAR    6.00111E-04   121.85    0.00000E+00     0.00






 ***** DATA CARD NO. 16   EN   0     0     0     0  0.00000E+00  0.00000E+00  0.00000E+00  0.00000E+00  0.00000E+00  0.00000E+00

 RUN TIME =     0.234
