1



                                 *********************************************

                                    NUMERICAL ELECTROMAGNETICS CODE (NEC-2D)

                                 *********************************************




                                     - - - - COMMENTS - - - -


                                                                                                     
                                                                                                     




                                 - - - STRUCTURE SPECIFICATION - - -

                                     COORDINATES MUST BE INPUT IN
                                     METERS OR BE SCALED TO METERS
                                     BEFORE STRUCTURE INPUT IS ENDED


  WIRE                                                                               NO. OF    FIRST  LAST     TAG
  NO.        X1         Y1         Z1          X2         Y2         Z2      RADIUS   SEG.     SEG.   SEG.     NO.
     1   -7.50000   -5.00000   -5.00000    -7.50000   -5.00000    5.00000    0.00100     20        1    20     101
     2   -2.50000   -5.00000   -5.00000    -2.50000   -5.00000    5.00000    0.00100     20       21    40     102
     3    2.50000   -5.00000   -5.00000     2.50000   -5.00000    5.00000    0.00100     20       41    60     103
     4    7.50000   -5.00000   -5.00000     7.50000   -5.00000    5.00000    0.00100     20       61    80     104
     5   -7.50000    0.00000   -5.00000    -7.50000    0.00000    5.00000    0.00100     20       81   100     201
     6   -2.50000    0.00000   -5.00000    -2.50000    0.00000    5.00000    0.00100     20      101   120     202
     7    2.50000    0.00000   -5.00000     2.50000    0.00000    5.00000    0.00100     20      121   140     203
     8    7.50000    0.00000   -5.00000     7.50000    0.00000    5.00000    0.00100     20      141   160     204
     9   -7.50000    5.00000   -5.00000    -7.50000    5.00000    5.00000    0.00100     20      161   180     301
    10   -2.50000    5.00000   -5.00000    -2.50000    5.00000    5.00000    0.00100     20      181   200     302
    11    2.50000    5.00000   -5.00000     2.50000    5.00000    5.00000    0.00100     20      201   220     303
    12    7.50000    5.00000   -5.00000     7.50000    5.00000    5.00000    0.00100     20      221   240     304

   TOTAL SEGMENTS USED=  240     NO. SEG. IN A SYMMETRIC CELL=  240     SYMMETRY FLAG=  0


         - MULTIPLE WIRE JUNCTIONS -
 JUNCTION    SEGMENTS  (- FOR END 1, + FOR END 2)
  NONE




                                 - - - - SEGMENTATION DATA - - - -

                                        COORDINATES IN METERS

                         I+ AND I- INDICATE THE SEGMENTS BEFORE AND AFTER I


  SEG.   COORDINATES OF SEG. CENTER     SEG.     ORIENTATION ANGLES    WIRE    CONNECTION DATA   TAG
  NO.       X         Y         Z       LENGTH     ALPHA     BETA      RADIUS    I-   I    I+    NO.
     1  -7.50000  -5.00000  -4.75000   0.50000   90.00000   0.00000   0.00100     0    1    2    101
     2  -7.50000  -5.00000  -4.25000   0.50000   90.00000   0.00000   0.00100     1    2    3    101
     3  -7.50000  -5.00000  -3.75000   0.50000   90.00000   0.00000   0.00100     2    3    4    101
     4  -7.50000  -5.00000  -3.25000   0.50000   90.00000   0.00000   0.00100     3    4    5    101
     5  -7.50000  -5.00000  -2.75000   0.50000   90.00000   0.00000   0.00100     4    5    6    101
     6  -7.50000  -5.00000  -2.25000   0.50000   90.00000   0.00000   0.00100     5    6    7    101
     7  -7.50000  -5.00000  -1.75000   0.50000   90.00000   0.00000   0.00100     6    7    8    101
     8  -7.50000  -5.00000  -1.25000   0.50000   90.00000   0.00000   0.00100     7    8    9    101
     9  -7.50000  -5.00000  -0.75000   0.50000   90.00000   0.00000   0.00100     8    9   10    101
    10  -7.50000  -5.00000  -0.25000   0.50000   90.00000   0.00000   0.00100     9   10   11    101
    11  -7.50000  -5.00000   0.25000   0.50000   90.00000   0.00000   0.00100    10   11   12    101
    12  -7.50000  -5.00000   0.75000   0.50000   90.00000   0.00000   0.00100    11   12   13    101
    13  -7.50000  -5.00000   1.25000   0.50000   90.00000   0.00000   0.00100    12   13   14    101
    14  -7.50000  -5.00000   1.75000   0.50000   90.00000   0.00000   0.00100    13   14   15    101
    15  -7.50000  -5.00000   2.25000   0.50000   90.00000   0.00000   0.00100    14   15   16    101
    16  -7.50000  -5.00000   2.75000   0.50000   90.00000   0.00000   0.00100    15   16   17    101
    17  -7.50000  -5.00000   3.25000   0.50000   90.00000   0.00000   0.00100    16   17   18    101
    18  -7.50000  -5.00000   3.75000   0.50000   90.00000   0.00000   0.00100    17   18   19    101
    19  -7.50000  -5.00000   4.25000   0.50000   90.00000   0.00000   0.00100    18   19   20    101
    20  -7.50000  -5.00000   4.75000   0.50000   90.00000   0.00000   0.00100    19   20    0    101
    21  -2.50000  -5.00000  -4.75000   0.50000   90.00000   0.00000   0.00100     0   21   22    102
    22  -2.50000  -5.00000  -4.25000   0.50000   90.00000   0.00000   0.00100    21   22   23    102
    23  -2.50000  -5.00000  -3.75000   0.50000   90.00000   0.00000   0.00100    22   23   24    102
    24  -2.50000  -5.00000  -3.25000   0.50000   90.00000   0.00000   0.00100    23   24   25    102
    25  -2.50000  -5.00000  -2.75000   0.50000   90.00000   0.00000   0.00100    24   25   26    102
    26  -2.50000  -5.00000  -2.25000   0.50000   90.00000   0.00000   0.00100    25   26   27    102
    27  -2.50000  -5.00000  -1.75000   0.50000   90.00000   0.00000   0.00100    26   27   28    102
    28  -2.50000  -5.00000  -1.25000   0.50000   90.00000   0.00000   0.00100    27   28   29    102
    29  -2.50000  -5.00000  -0.75000   0.50000   90.00000   0.00000   0.00100    28   29   30    102
    30  -2.50000  -5.00000  -0.25000   0.50000   90.00000   0.00000   0.00100    29   30   31    102
    31  -2.50000  -5.00000   0.25000   0.50000   90.00000   0.00000   0.00100    30   31   32    102
    32  -2.50000  -5.00000   0.75000   0.50000   90.00000   0.00000   0.00100    31   32   33    102
    33  -2.50000  -5.00000   1.25000   0.50000   90.00000   0.00000   0.00100    32   33   34    102
    34  -2.50000  -5.00000   1.75000   0.50000   90.00000   0.00000   0.00100    33   34   35    102
    35  -2.50000  -5.00000   2.25000   0.50000   90.00000   0.00000   0.00100    34   35   36    102
    36  -2.50000  -5.00000   2.75000   0.50000   90.00000   0.00000   0.00100    35   36   37    102
    37  -2.50000  -5.00000   3.25000   0.50000   90.00000   0.00000   0.00100    36   37   38    102
    38  -2.50000  -5.00000   3.75000   0.50000   90.00000   0.00000   0.00100    37   38   39    102
    39  -2.50000  -5.00000   4.25000   0.50000   90.00000   0.00000   0.00100    38   39   40    102
    40  -2.50000  -5.00000   4.75000   0.50000   90.00000   0.00000   0.00100    39   40    0    102
    41   2.50000  -5.00000  -4.75000   0.50000   90.00000   0.00000   0.00100     0   41   42    103
    42   2.50000  -5.00000  -4.25000   0.50000   90.00000   0.00000   0.00100    41   42   43    103
    43   2.50000  -5.00000  -3.75000   0.50000   90.00000   0.00000   0.00100    42   43   44    103
    44   2.50000  -5.00000  -3.25000   0.50000   90.00000   0.00000   0.00100    43   44   45    103
    45   2.50000  -5.00000  -2.75000   0.50000   90.00000   0.00000   0.00100    44   45   46    103
    46   2.50000  -5.00000  -2.25000   0.50000   90.00000   0.00000   0.00100    45   46   47    103
    47   2.50000  -5.00000  -1.75000   0.50000   90.00000   0.00000   0.00100    46   47   48    103
    48   2.50000  -5.00000  -1.25000   0.50000   90.00000   0.00000   0.00100    47   48   49    103
    49   2.50000  -5.00000  -0.75000   0.50000   90.00000   0.00000   0.00100    48   49   50    103
    50   2.50000  -5.00000  -0.25000   0.50000   90.00000   0.00000   0.00100    49   50   51    103
    51   2.50000  -5.00000   0.25000   0.50000   90.00000   0.00000   0.00100    50   51   52    103
    52   2.50000  -5.00000   0.75000   0.50000   90.00000   0.00000   0.00100    51   52   53    103
    53   2.50000  -5.00000   1.25000   0.50000   90.00000   0.00000   0.00100    52   53   54    103
    54   2.50000  -5.00000   1.75000   0.50000   90.00000   0.00000   0.00100    53   54   55    103
    55   2.50000  -5.00000   2.25000   0.50000   90.00000   0.00000   0.00100    54   55   56    103
    56   2.50000  -5.00000   2.75000   0.50000   90.00000   0.00000   0.00100    55   56   57    103
    57   2.50000  -5.00000   3.25000   0.50000   90.00000   0.00000   0.00100    56   57   58    103
    58   2.50000  -5.00000   3.75000   0.50000   90.00000   0.00000   0.00100    57   58   59    103
    59   2.50000  -5.00000   4.25000   0.50000   90.00000   0.00000   0.00100    58   59   60    103
    60   2.50000  -5.00000   4.75000   0.50000   90.00000   0.00000   0.00100    59   60    0    103
    61   7.50000  -5.00000  -4.75000   0.50000   90.00000   0.00000   0.00100     0   61   62    104
    62   7.50000  -5.00000  -4.25000   0.50000   90.00000   0.00000   0.00100    61   62   63    104
    63   7.50000  -5.00000  -3.75000   0.50000   90.00000   0.00000   0.00100    62   63   64    104
    64   7.50000  -5.00000  -3.25000   0.50000   90.00000   0.00000   0.00100    63   64   65    104
    65   7.50000  -5.00000  -2.75000   0.50000   90.00000   0.00000   0.00100    64   65   66    104
    66   7.50000  -5.00000  -2.25000   0.50000   90.00000   0.00000   0.00100    65   66   67    104
    67   7.50000  -5.00000  -1.75000   0.50000   90.00000   0.00000   0.00100    66   67   68    104
    68   7.50000  -5.00000  -1.25000   0.50000   90.00000   0.00000   0.00100    67   68   69    104
    69   7.50000  -5.00000  -0.75000   0.50000   90.00000   0.00000   0.00100    68   69   70    104
    70   7.50000  -5.00000  -0.25000   0.50000   90.00000   0.00000   0.00100    69   70   71    104
    71   7.50000  -5.00000   0.25000   0.50000   90.00000   0.00000   0.00100    70   71   72    104
    72   7.50000  -5.00000   0.75000   0.50000   90.00000   0.00000   0.00100    71   72   73    104
    73   7.50000  -5.00000   1.25000   0.50000   90.00000   0.00000   0.00100    72   73   74    104
    74   7.50000  -5.00000   1.75000   0.50000   90.00000   0.00000   0.00100    73   74   75    104
    75   7.50000  -5.00000   2.25000   0.50000   90.00000   0.00000   0.00100    74   75   76    104
    76   7.50000  -5.00000   2.75000   0.50000   90.00000   0.00000   0.00100    75   76   77    104
    77   7.50000  -5.00000   3.25000   0.50000   90.00000   0.00000   0.00100    76   77   78    104
    78   7.50000  -5.00000   3.75000   0.50000   90.00000   0.00000   0.00100    77   78   79    104
    79   7.50000  -5.00000   4.25000   0.50000   90.00000   0.00000   0.00100    78   79   80    104
    80   7.50000  -5.00000   4.75000   0.50000   90.00000   0.00000   0.00100    79   80    0    104
    81  -7.50000   0.00000  -4.75000   0.50000   90.00000   0.00000   0.00100     0   81   82    201
    82  -7.50000   0.00000  -4.25000   0.50000   90.00000   0.00000   0.00100    81   82   83    201
    83  -7.50000   0.00000  -3.75000   0.50000   90.00000   0.00000   0.00100    82   83   84    201
    84  -7.50000   0.00000  -3.25000   0.50000   90.00000   0.00000   0.00100    83   84   85    201
    85  -7.50000   0.00000  -2.75000   0.50000   90.00000   0.00000   0.00100    84   85   86    201
    86  -7.50000   0.00000  -2.25000   0.50000   90.00000   0.00000   0.00100    85   86   87    201
    87  -7.50000   0.00000  -1.75000   0.50000   90.00000   0.00000   0.00100    86   87   88    201
    88  -7.50000   0.00000  -1.25000   0.50000   90.00000   0.00000   0.00100    87   88   89    201
    89  -7.50000   0.00000  -0.75000   0.50000   90.00000   0.00000   0.00100    88   89   90    201
    90  -7.50000   0.00000  -0.25000   0.50000   90.00000   0.00000   0.00100    89   90   91    201
    91  -7.50000   0.00000   0.25000   0.50000   90.00000   0.00000   0.00100    90   91   92    201
    92  -7.50000   0.00000   0.75000   0.50000   90.00000   0.00000   0.00100    91   92   93    201
    93  -7.50000   0.00000   1.25000   0.50000   90.00000   0.00000   0.00100    92   93   94    201
    94  -7.50000   0.00000   1.75000   0.50000   90.00000   0.00000   0.00100    93   94   95    201
    95  -7.50000   0.00000   2.25000   0.50000   90.00000   0.00000   0.00100    94   95   96    201
    96  -7.50000   0.00000   2.75000   0.50000   90.00000   0.00000   0.00100    95   96   97    201
    97  -7.50000   0.00000   3.25000   0.50000   90.00000   0.00000   0.00100    96   97   98    201
    98  -7.50000   0.00000   3.75000   0.50000   90.00000   0.00000   0.00100    97   98   99    201
    99  -7.50000   0.00000   4.25000   0.50000   90.00000   0.00000   0.00100    98   99  100    201
   100  -7.50000   0.00000   4.75000   0.50000   90.00000   0.00000   0.00100    99  100    0    201
   101  -2.50000   0.00000  -4.75000   0.50000   90.00000   0.00000   0.00100     0  101  102    202
   102  -2.50000   0.00000  -4.25000   0.50000   90.00000   0.00000   0.00100   101  102  103    202
   103  -2.50000   0.00000  -3.75000   0.50000   90.00000   0.00000   0.00100   102  103  104    202
   104  -2.50000   0.00000  -3.25000   0.50000   90.00000   0.00000   0.00100   103  104  105    202
   105  -2.50000   0.00000  -2.75000   0.50000   90.00000   0.00000   0.00100   104  105  106    202
   106  -2.50000   0.00000  -2.25000   0.50000   90.00000   0.00000   0.00100   105  106  107    202
   107  -2.50000   0.00000  -1.75000   0.50000   90.00000   0.00000   0.00100   106  107  108    202
   108  -2.50000   0.00000  -1.25000   0.50000   90.00000   0.00000   0.00100   107  108  109    202
   109  -2.50000   0.00000  -0.75000   0.50000   90.00000   0.00000   0.00100   108  109  110    202
   110  -2.50000   0.00000  -0.25000   0.50000   90.00000   0.00000   0.00100   109  110  111    202
   111  -2.50000   0.00000   0.25000   0.50000   90.00000   0.00000   0.00100   110  111  112    202
   112  -2.50000   0.00000   0.75000   0.50000   90.00000   0.00000   0.00100   111  112  113    202
   113  -2.50000   0.00000   1.25000   0.50000   90.00000   0.00000   0.00100   112  113  114    202
   114  -2.50000   0.00000   1.75000   0.50000   90.00000   0.00000   0.00100   113  114  115    202
   115  -2.50000   0.00000   2.25000   0.50000   90.00000   0.00000   0.00100   114  115  116    202
   116  -2.50000   0.00000   2.75000   0.50000   90.00000   0.00000   0.00100   115  116  117    202
   117  -2.50000   0.00000   3.25000   0.50000   90.00000   0.00000   0.00100   116  117  118    202
   118  -2.50000   0.00000   3.75000   0.50000   90.00000   0.00000   0.00100   117  118  119    202
   119  -2.50000   0.00000   4.25000   0.50000   90.00000   0.00000   0.00100   118  119  120    202
   120  -2.50000   0.00000   4.75000   0.50000   90.00000   0.00000   0.00100   119  120    0    202
   121   2.50000   0.00000  -4.75000   0.50000   90.00000   0.00000   0.00100     0  121  122    203
   122   2.50000   0.00000  -4.25000   0.50000   90.00000   0.00000   0.00100   121  122  123    203
   123   2.50000   0.00000  -3.75000   0.50000   90.00000   0.00000   0.00100   122  123  124    203
   124   2.50000   0.00000  -3.25000   0.50000   90.00000   0.00000   0.00100   123  124  125    203
   125   2.50000   0.00000  -2.75000   0.50000   90.00000   0.00000   0.00100   124  125  126    203
   126   2.50000   0.00000  -2.25000   0.50000   90.00000   0.00000   0.00100   125  126  127    203
   127   2.50000   0.00000  -1.75000   0.50000   90.00000   0.00000   0.00100   126  127  128    203
   128   2.50000   0.00000  -1.25000   0.50000   90.00000   0.00000   0.00100   127  128  129    203
   129   2.50000   0.00000  -0.75000   0.50000   90.00000   0.00000   0.00100   128  129  130    203
   130   2.50000   0.00000  -0.25000   0.50000   90.00000   0.00000   0.00100   129  130  131    203
   131   2.50000   0.00000   0.25000   0.50000   90.00000   0.00000   0.00100   130  131  132    203
   132   2.50000   0.00000   0.75000   0.50000   90.00000   0.00000   0.00100   131  132  133    203
   133   2.50000   0.00000   1.25000   0.50000   90.00000   0.00000   0.00100   132  133  134    203
   134   2.50000   0.00000   1.75000   0.50000   90.00000   0.00000   0.00100   133  134  135    203
   135   2.50000   0.00000   2.25000   0.50000   90.00000   0.00000   0.00100   134  135  136    203
   136   2.50000   0.00000   2.75000   0.50000   90.00000   0.00000   0.00100   135  136  137    203
   137   2.50000   0.00000   3.25000   0.50000   90.00000   0.00000   0.00100   136  137  138    203
   138   2.50000   0.00000   3.75000   0.50000   90.00000   0.00000   0.00100   137  138  139    203
   139   2.50000   0.00000   4.25000   0.50000   90.00000   0.00000   0.00100   138  139  140    203
   140   2.50000   0.00000   4.75000   0.50000   90.00000   0.00000   0.00100   139  140    0    203
   141   7.50000   0.00000  -4.75000   0.50000   90.00000   0.00000   0.00100     0  141  142    204
   142   7.50000   0.00000  -4.25000   0.50000   90.00000   0.00000   0.00100   141  142  143    204
   143   7.50000   0.00000  -3.75000   0.50000   90.00000   0.00000   0.00100   142  143  144    204
   144   7.50000   0.00000  -3.25000   0.50000   90.00000   0.00000   0.00100   143  144  145    204
   145   7.50000   0.00000  -2.75000   0.50000   90.00000   0.00000   0.00100   144  145  146    204
   146   7.50000   0.00000  -2.25000   0.50000   90.00000   0.00000   0.00100   145  146  147    204
   147   7.50000   0.00000  -1.75000   0.50000   90.00000   0.00000   0.00100   146  147  148    204
   148   7.50000   0.00000  -1.25000   0.50000   90.00000   0.00000   0.00100   147  148  149    204
   149   7.50000   0.00000  -0.75000   0.50000   90.00000   0.00000   0.00100   148  149  150    204
   150   7.50000   0.00000  -0.25000   0.50000   90.00000   0.00000   0.00100   149  150  151    204
   151   7.50000   0.00000   0.25000   0.50000   90.00000   0.00000   0.00100   150  151  152    204
   152   7.50000   0.00000   0.75000   0.50000   90.00000   0.00000   0.00100   151  152  153    204
   153   7.50000   0.00000   1.25000   0.50000   90.00000   0.00000   0.00100   152  153  154    204
   154   7.50000   0.00000   1.75000   0.50000   90.00000   0.00000   0.00100   153  154  155    204
   155   7.50000   0.00000   2.25000   0.50000   90.00000   0.00000   0.00100   154  155  156    204
   156   7.50000   0.00000   2.75000   0.50000   90.00000   0.00000   0.00100   155  156  157    204
   157   7.50000   0.00000   3.25000   0.50000   90.00000   0.00000   0.00100   156  157  158    204
   158   7.50000   0.00000   3.75000   0.50000   90.00000   0.00000   0.00100   157  158  159    204
   159   7.50000   0.00000   4.25000   0.50000   90.00000   0.00000   0.00100   158  159  160    204
   160   7.50000   0.00000   4.75000   0.50000   90.00000   0.00000   0.00100   159  160    0    204
   161  -7.50000   5.00000  -4.75000   0.50000   90.00000   0.00000   0.00100     0  161  162    301
   162  -7.50000   5.00000  -4.25000   0.50000   90.00000   0.00000   0.00100   161  162  163    301
   163  -7.50000   5.00000  -3.75000   0.50000   90.00000   0.00000   0.00100   162  163  164    301
   164  -7.50000   5.00000  -3.25000   0.50000   90.00000   0.00000   0.00100   163  164  165    301
   165  -7.50000   5.00000  -2.75000   0.50000   90.00000   0.00000   0.00100   164  165  166    301
   166  -7.50000   5.00000  -2.25000   0.50000   90.00000   0.00000   0.00100   165  166  167    301
   167  -7.50000   5.00000  -1.75000   0.50000   90.00000   0.00000   0.00100   166  167  168    301
   168  -7.50000   5.00000  -1.25000   0.50000   90.00000   0.00000   0.00100   167  168  169    301
   169  -7.50000   5.00000  -0.75000   0.50000   90.00000   0.00000   0.00100   168  169  170    301
   170  -7.50000   5.00000  -0.25000   0.50000   90.00000   0.00000   0.00100   169  170  171    301
   171  -7.50000   5.00000   0.25000   0.50000   90.00000   0.00000   0.00100   170  171  172    301
   172  -7.50000   5.00000   0.75000   0.50000   90.00000   0.00000   0.00100   171  172  173    301
   173  -7.50000   5.00000   1.25000   0.50000   90.00000   0.00000   0.00100   172  173  174    301
   174  -7.50000   5.00000   1.75000   0.50000   90.00000   0.00000   0.00100   173  174  175    301
   175  -7.50000   5.00000   2.25000   0.50000   90.00000   0.00000   0.00100   174  175  176    301
   176  -7.50000   5.00000   2.75000   0.50000   90.00000   0.00000   0.00100   175  176  177    301
   177  -7.50000   5.00000   3.25000   0.50000   90.00000   0.00000   0.00100   176  177  178    301
   178  -7.50000   5.00000   3.75000   0.50000   90.00000   0.00000   0.00100   177  178  179    301
   179  -7.50000   5.00000   4.25000   0.50000   90.00000   0.00000   0.00100   178  179  180    301
   180  -7.50000   5.00000   4.75000   0.50000   90.00000   0.00000   0.00100   179  180    0    301
   181  -2.50000   5.00000  -4.75000   0.50000   90.00000   0.00000   0.00100     0  181  182    302
   182  -2.50000   5.00000  -4.25000   0.50000   90.00000   0.00000   0.00100   181  182  183    302
   183  -2.50000   5.00000  -3.75000   0.50000   90.00000   0.00000   0.00100   182  183  184    302
   184  -2.50000   5.00000  -3.25000   0.50000   90.00000   0.00000   0.00100   183  184  185    302
   185  -2.50000   5.00000  -2.75000   0.50000   90.00000   0.00000   0.00100   184  185  186    302
   186  -2.50000   5.00000  -2.25000   0.50000   90.00000   0.00000   0.00100   185  186  187    302
   187  -2.50000   5.00000  -1.75000   0.50000   90.00000   0.00000   0.00100   186  187  188    302
   188  -2.50000   5.00000  -1.25000   0.50000   90.00000   0.00000   0.00100   187  188  189    302
   189  -2.50000   5.00000  -0.75000   0.50000   90.00000   0.00000   0.00100   188  189  190    302
   190  -2.50000   5.00000  -0.25000   0.50000   90.00000   0.00000   0.00100   189  190  191    302
   191  -2.50000   5.00000   0.25000   0.50000   90.00000   0.00000   0.00100   190  191  192    302
   192  -2.50000   5.00000   0.75000   0.50000   90.00000   0.00000   0.00100   191  192  193    302
   193  -2.50000   5.00000   1.25000   0.50000   90.00000   0.00000   0.00100   192  193  194    302
   194  -2.50000   5.00000   1.75000   0.50000   90.00000   0.00000   0.00100   193  194  195    302
   195  -2.50000   5.00000   2.25000   0.50000   90.00000   0.00000   0.00100   194  195  196    302
   196  -2.50000   5.00000   2.75000   0.50000   90.00000   0.00000   0.00100   195  196  197    302
   197  -2.50000   5.00000   3.25000   0.50000   90.00000   0.00000   0.00100   196  197  198    302
   198  -2.50000   5.00000   3.75000   0.50000   90.00000   0.00000   0.00100   197  198  199    302
   199  -2.50000   5.00000   4.25000   0.50000   90.00000   0.00000   0.00100   198  199  200    302
   200  -2.50000   5.00000   4.75000   0.50000   90.00000   0.00000   0.00100   199  200    0    302
   201   2.50000   5.00000  -4.75000   0.50000   90.00000   0.00000   0.00100     0  201  202    303
   202   2.50000   5.00000  -4.25000   0.50000   90.00000   0.00000   0.00100   201  202  203    303
   203   2.50000   5.00000  -3.75000   0.50000   90.00000   0.00000   0.00100   202  203  204    303
   204   2.50000   5.00000  -3.25000   0.50000   90.00000   0.00000   0.00100   203  204  205    303
   205   2.50000   5.00000  -2.75000   0.50000   90.00000   0.00000   0.00100   204  205  206    303
   206   2.50000   5.00000  -2.25000   0.50000   90.00000   0.00000   0.00100   205  206  207    303
   207   2.50000   5.00000  -1.75000   0.50000   90.00000   0.00000   0.00100   206  207  208    303
   208   2.50000   5.00000  -1.25000   0.50000   90.00000   0.00000   0.00100   207  208  209    303
   209   2.50000   5.00000  -0.75000   0.50000   90.00000   0.00000   0.00100   208  209  210    303
   210   2.50000   5.00000  -0.25000   0.50000   90.00000   0.00000   0.00100   209  210  211    303
   211   2.50000   5.00000   0.25000   0.50000   90.00000   0.00000   0.00100   210  211  212    303
   212   2.50000   5.00000   0.75000   0.50000   90.00000   0.00000   0.00100   211  212  213    303
   213   2.50000   5.00000   1.25000   0.50000   90.00000   0.00000   0.00100   212  213  214    303
   214   2.50000   5.00000   1.75000   0.50000   90.00000   0.00000   0.00100   213  214  215    303
   215   2.50000   5.00000   2.25000   0.50000   90.00000   0.00000   0.00100   214  215  216    303
   216   2.50000   5.00000   2.75000   0.50000   90.00000   0.00000   0.00100   215  216  217    303
   217   2.50000   5.00000   3.25000   0.50000   90.00000   0.00000   0.00100   216  217  218    303
   218   2.50000   5.00000   3.75000   0.50000   90.00000   0.00000   0.00100   217  218  219    303
   219   2.50000   5.00000   4.25000   0.50000   90.00000   0.00000   0.00100   218  219  220    303
   220   2.50000   5.00000   4.75000   0.50000   90.00000   0.00000   0.00100   219  220    0    303
   221   7.50000   5.00000  -4.75000   0.50000   90.00000   0.00000   0.00100     0  221  222    304
   222   7.50000   5.00000  -4.25000   0.50000   90.00000   0.00000   0.00100   221  222  223    304
   223   7.50000   5.00000  -3.75000   0.50000   90.00000   0.00000   0.00100   222  223  224    304
   224   7.50000   5.00000  -3.25000   0.50000   90.00000   0.00000   0.00100   223  224  225    304
   225   7.50000   5.00000  -2.75000   0.50000   90.00000   0.00000   0.00100   224  225  226    304
   226   7.50000   5.00000  -2.25000   0.50000   90.00000   0.00000   0.00100   225  226  227    304
   227   7.50000   5.00000  -1.75000   0.50000   90.00000   0.00000   0.00100   226  227  228    304
   228   7.50000   5.00000  -1.25000   0.50000   90.00000   0.00000   0.00100   227  228  229    304
   229   7.50000   5.00000  -0.75000   0.50000   90.00000   0.00000   0.00100   228  229  230    304
   230   7.50000   5.00000  -0.25000   0.50000   90.00000   0.00000   0.00100   229  230  231    304
   231   7.50000   5.00000   0.25000   0.50000   90.00000   0.00000   0.00100   230  231  232    304
   232   7.50000   5.00000   0.75000   0.50000   90.00000   0.00000   0.00100   231  232  233    304
   233   7.50000   5.00000   1.25000   0.50000   90.00000   0.00000   0.00100   232  233  234    304
   234   7.50000   5.00000   1.75000   0.50000   90.00000   0.00000   0.00100   233  234  235    304
   235   7.50000   5.00000   2.25000   0.50000   90.00000   0.00000   0.00100   234  235  236    304
   236   7.50000   5.00000   2.75000   0.50000   90.00000   0.00000   0.00100   235  236  237    304
   237   7.50000   5.00000   3.25000   0.50000   90.00000   0.00000   0.00100   236  237  238    304
   238   7.50000   5.00000   3.75000   0.50000   90.00000   0.00000   0.00100   237  238  239    304
   239   7.50000   5.00000   4.25000   0.50000   90.00000   0.00000   0.00100   238  239  240    304
   240   7.50000   5.00000   4.75000   0.50000   90.00000   0.00000   0.00100   239  240    0    304






 ***** DATA CARD NO.  1   GN  -1     0     0     0  1.00000E+01  1.00000E-02  0.00000E+00  0.00000E+00  0.00000E+00  0.00000E+00
 ***** DATA CARD NO.  2   FR   0     0     0     0  1.50000E+02  0.00000E+00  0.00000E+00  0.00000E+00  0.00000E+00  0.00000E+00
 ***** DATA CARD NO.  3   EX   0   101    10     0  1.00000E-09  0.00000E+00  0.00000E+00  0.00000E+00  0.00000E+00  0.00000E+00
 ***** DATA CARD NO.  4   EX   0   102    10     0  1.00000E-09  0.00000E+00  0.00000E+00  0.00000E+00  0.00000E+00  0.00000E+00
 ***** DATA CARD NO.  5   EX   0   103    10     0  1.00000E-09  0.00000E+00  0.00000E+00  0.00000E+00  0.00000E+00  0.00000E+00
 ***** DATA CARD NO.  6   EX   0   104    10     0  1.00000E-09  0.00000E+00  0.00000E+00  0.00000E+00  0.00000E+00  0.00000E+00
 ***** DATA CARD NO.  7   EX   0   201    10     0  1.00000E-09  0.00000E+00  0.00000E+00  0.00000E+00  0.00000E+00  0.00000E+00
 ***** DATA CARD NO.  8   EX   0   202    10     0  1.00000E-09  0.00000E+00  0.00000E+00  0.00000E+00  0.00000E+00  0.00000E+00
 ***** DATA CARD NO.  9   EX   0   203    10     0  1.00000E-09  0.00000E+00  0.00000E+00  0.00000E+00  0.00000E+00  0.00000E+00
 ***** DATA CARD NO. 10   EX   0   204    10     0 -3.60120E-03  2.36090E-03  0.00000E+00  0.00000E+00  0.00000E+00  0.00000E+00
 ***** DATA CARD NO. 11   EX   0   301    10     0  1.00000E-09  0.00000E+00  0.00000E+00  0.00000E+00  0.00000E+00  0.00000E+00
 ***** DATA CARD NO. 12   EX   0   302    10     0  1.00000E-09  0.00000E+00  0.00000E+00  0.00000E+00  0.00000E+00  0.00000E+00
 ***** DATA CARD NO. 13   EX   0   303    10     0  1.00000E-09  0.00000E+00  0.00000E+00  0.00000E+00  0.00000E+00  0.00000E+00
 ***** DATA CARD NO. 14   EX   0   304    10     0  1.00000E-09  0.00000E+00  0.00000E+00  0.00000E+00  0.00000E+00  0.00000E+00
 ***** DATA CARD NO. 15   RP   0    19    72  1010  0.00000E+00  0.00000E+00  5.00000E+00  5.00000E+00  0.00000E+00  0.00000E+00




                                 - - - - - - FREQUENCY - - - - - -

                                    FREQUENCY= 1.5000E+02 MHZ
                                    WAVELENGTH= 1.9987E+00 METERS




                    APPROXIMATE INTEGRATION EMPLOYED FOR SEGMENTS MORE THAN   1.000 WAVELENGTHS APART



                               - - - STRUCTURE IMPEDANCE LOADING - - -

                                   THIS STRUCTURE IS NOT LOADED



                                  - - - ANTENNA ENVIRONMENT - - -

                                            FREE SPACE



                                - - - MATRIX TIMING - - -

                        FILL=    0.047 SEC.,  FACTOR=    0.016 SEC.



                                          - - - ANTENNA INPUT PARAMETERS - - -

   TAG   SEG.    VOLTAGE (VOLTS)         CURRENT (AMPS)         IMPEDANCE (OHMS)        ADMITTANCE (MHOS)      POWER
   NO.   NO.    REAL        IMAG.       REAL        IMAG.       REAL        IMAG.       REAL        IMAG.     (WATTS)
   101    10 1.00000E-09 0.00000E+00 8.75280E-08 1.29696E-07 3.57517E-03-5.29756E-03 8.75280E+01 1.29696E+02 4.37640E-17
   102    30 1.00000E-09 0.00000E+00 8.35216E-08 8.34164E-08 5.99402E-03-5.98647E-03 8.35216E+01 8.34164E+01 4.17608E-17
   103    50 1.00000E-09 0.00000E+00-4.17506E-07 4.13527E-08-2.37190E-03-2.34929E-04-4.17506E+02 4.13527E+01-2.08753E-16
   104    70 1.00000E-09 0.00000E+00 2.18159E-08-1.57201E-07 8.66117E-04 6.24107E-03 2.18159E+01-1.57201E+02 1.09080E-17
   201    90 1.00000E-09 0.00000E+00-2.01388E-07-3.41699E-08-4.82660E-03 8.18940E-04-2.01388E+02-3.41699E+01-1.00694E-16
   202   110 1.00000E-09 0.00000E+00-1.23267E-07 4.30639E-08-7.23004E-03-2.52585E-03-1.23267E+02 4.30639E+01-6.16336E-17
   203   130 1.00000E-09 0.00000E+00 4.13021E-08-1.56312E-07 1.58007E-03 5.97995E-03 4.13021E+01-1.56312E+02 2.06510E-17
   204   150-3.60120E-03 2.36090E-03-7.42380E-06 1.19430E-05 2.77781E+02 1.28862E+02 2.96243E-03-1.37427E-03 2.74654E-08
   301   170 1.00000E-09 0.00000E+00 8.75280E-08 1.29696E-07 3.57517E-03-5.29756E-03 8.75280E+01 1.29696E+02 4.37640E-17
   302   190 1.00000E-09 0.00000E+00 8.35216E-08 8.34164E-08 5.99402E-03-5.98647E-03 8.35216E+01 8.34164E+01 4.17608E-17
   303   210 1.00000E-09 0.00000E+00-4.17506E-07 4.13527E-08-2.37190E-03-2.34929E-04-4.17506E+02 4.13527E+01-2.08753E-16
   304   230 1.00000E-09 0.00000E+00 2.18159E-08-1.57201E-07 8.66117E-04 6.24107E-03 2.18159E+01-1.57201E+02 1.09080E-17



                             - - - CURRENTS AND LOCATION - - -

                                 DISTANCES IN WAVELENGTHS


  SEG.  TAG    COORD. OF SEG. CENTER     SEG.            - - - CURRENT (AMPS) - - -
  NO.   NO.     X        Y        Z      LENGTH     REAL        IMAG.       MAG.        PHASE
     1  101  -3.7525  -2.5017  -2.3766  0.25017   1.0649E-07  1.7367E-07  2.0372E-07   58.485
     2  101  -3.7525  -2.5017  -2.1264  0.25017   1.0371E-07  1.6712E-07  1.9668E-07   58.177
     3  101  -3.7525  -2.5017  -1.8763  0.25017  -9.3508E-08 -1.6879E-07  1.9296E-07 -118.986
     4  101  -3.7525  -2.5017  -1.6261  0.25017  -8.7892E-08 -1.9531E-07  2.1417E-07 -114.229
     5  101  -3.7525  -2.5017  -1.3759  0.25017   1.0610E-07  9.5862E-08  1.4300E-07   42.097
     6  101  -3.7525  -2.5017  -1.1258  0.25017   1.0641E-07  8.9607E-08  1.3911E-07   40.100
     7  101  -3.7525  -2.5017  -0.8756  0.25017  -6.7555E-08 -2.2183E-07  2.3189E-07 -106.937
     8  101  -3.7525  -2.5017  -0.6254  0.25017  -4.8436E-08 -2.2396E-07  2.2914E-07 -102.203
     9  101  -3.7525  -2.5017  -0.3753  0.25017   1.2589E-07  9.7414E-08  1.5918E-07   37.732
    10  101  -3.7525  -2.5017  -0.1251  0.25017   8.7528E-08  1.2970E-07  1.5647E-07   55.986
    11  101  -3.7525  -2.5017   0.1251  0.25017  -1.1222E-07 -1.4900E-07  1.8653E-07 -126.986
    12  101  -3.7525  -2.5017   0.3753  0.25017  -9.7423E-08 -1.3550E-07  1.6689E-07 -125.716
    13  101  -3.7525  -2.5017   0.6254  0.25017   8.0930E-08  1.8324E-07  2.0032E-07   66.171
    14  101  -3.7525  -2.5017   0.8756  0.25017   5.2737E-08  1.9225E-07  1.9935E-07   74.660
    15  101  -3.7525  -2.5017   1.1258  0.25017  -1.2142E-07 -1.2950E-07  1.7752E-07 -133.157
    16  101  -3.7525  -2.5017   1.3759  0.25017  -7.7074E-08 -1.6108E-07  1.7857E-07 -115.570
    17  101  -3.7525  -2.5017   1.6261  0.25017   1.0227E-07  1.3097E-07  1.6617E-07   52.014
    18  101  -3.7525  -2.5017   1.8763  0.25017   3.7963E-08  1.3060E-07  1.3601E-07   73.792
    19  101  -3.7525  -2.5017   2.1264  0.25017  -1.7294E-07 -1.9008E-07  2.5698E-07 -132.296
    20  101  -3.7525  -2.5017   2.3766  0.25017  -1.2346E-07 -1.8797E-07  2.2488E-07 -123.297
    21  102  -1.2508  -2.5017  -2.3766  0.25017   9.2551E-08  1.0212E-07  1.3782E-07   47.815
    22  102  -1.2508  -2.5017  -2.1264  0.25017   8.0684E-08  1.3584E-07  1.5800E-07   59.292
    23  102  -1.2508  -2.5017  -1.8763  0.25017  -8.2171E-08 -1.0467E-08  8.2835E-08 -172.741
    24  102  -1.2508  -2.5017  -1.6261  0.25017  -7.5684E-08 -3.4439E-08  8.3151E-08 -155.532
    25  102  -1.2508  -2.5017  -1.3759  0.25017   8.9713E-08  8.1936E-08  1.2150E-07   42.406
    26  102  -1.2508  -2.5017  -1.1258  0.25017   1.3043E-07  6.6379E-08  1.4635E-07   26.973
    27  102  -1.2508  -2.5017  -0.8756  0.25017   4.4113E-08 -7.3386E-08  8.5624E-08  -58.990
    28  102  -1.2508  -2.5017  -0.6254  0.25017   6.6794E-08 -5.9553E-08  8.9487E-08  -41.720
    29  102  -1.2508  -2.5017  -0.3753  0.25017   1.6035E-07  8.9819E-08  1.8379E-07   29.255
    30  102  -1.2508  -2.5017  -0.1251  0.25017   8.3522E-08  8.3416E-08  1.1804E-07   44.964
    31  102  -1.2508  -2.5017   0.1251  0.25017  -1.0084E-07 -6.5377E-08  1.2018E-07 -147.044
    32  102  -1.2508  -2.5017   0.3753  0.25017  -1.1761E-07 -5.8409E-08  1.3132E-07 -153.590
    33  102  -1.2508  -2.5017   0.6254  0.25017   1.4752E-09  9.8170E-08  9.8181E-08   89.139
    34  102  -1.2508  -2.5017   0.8756  0.25017   6.4997E-09  1.0054E-07  1.0075E-07   86.301
    35  102  -1.2508  -2.5017   1.1258  0.25017  -6.2373E-08 -6.2811E-08  8.8519E-08 -134.800
    36  102  -1.2508  -2.5017   1.3759  0.25017   2.0117E-08 -1.0363E-07  1.0556E-07  -79.014
    37  102  -1.2508  -2.5017   1.6261  0.25017   1.5948E-07 -1.0184E-08  1.5980E-07   -3.654
    38  102  -1.2508  -2.5017   1.8763  0.25017   8.3036E-08 -4.7897E-08  9.5859E-08  -29.977
    39  102  -1.2508  -2.5017   2.1264  0.25017  -1.1257E-07 -1.8637E-07  2.1773E-07 -121.132
    40  102  -1.2508  -2.5017   2.3766  0.25017  -9.7371E-08 -1.2177E-07  1.5592E-07 -128.646
    41  103   1.2508  -2.5017  -2.3766  0.25017  -5.3279E-07  6.6203E-09  5.3283E-07  179.288
    42  103   1.2508  -2.5017  -2.1264  0.25017  -5.7778E-07  2.8754E-08  5.7850E-07  177.151
    43  103   1.2508  -2.5017  -1.8763  0.25017   4.1989E-07 -6.5215E-09  4.1994E-07   -0.890
    44  103   1.2508  -2.5017  -1.6261  0.25017   5.8292E-07 -2.0175E-09  5.8292E-07   -0.198
    45  103   1.2508  -2.5017  -1.3759  0.25017  -2.7236E-07  1.0510E-07  2.9194E-07  158.898
    46  103   1.2508  -2.5017  -1.1258  0.25017  -3.8829E-07  1.5118E-07  4.1669E-07  158.726
    47  103   1.2508  -2.5017  -0.8756  0.25017   4.3881E-07  2.3825E-08  4.3946E-07    3.108
    48  103   1.2508  -2.5017  -0.6254  0.25017   5.2859E-07 -1.1058E-07  5.4003E-07  -11.816
    49  103   1.2508  -2.5017  -0.3753  0.25017  -3.0310E-07 -7.8336E-08  3.1306E-07 -165.509
    50  103   1.2508  -2.5017  -0.1251  0.25017  -4.1751E-07  4.1353E-08  4.1955E-07  174.343
    51  103   1.2508  -2.5017   0.1251  0.25017   3.4847E-07  1.0962E-07  3.6530E-07   17.463
    52  103   1.2508  -2.5017   0.3753  0.25017   3.9719E-07  1.3337E-07  4.1898E-07   18.562
    53  103   1.2508  -2.5017   0.6254  0.25017  -3.7794E-07  1.2510E-07  3.9811E-07  161.685
    54  103   1.2508  -2.5017   0.8756  0.25017  -3.7830E-07  1.9160E-08  3.7878E-07  177.101
    55  103   1.2508  -2.5017   1.1258  0.25017   4.3991E-07 -1.3639E-07  4.6057E-07  -17.226
    56  103   1.2508  -2.5017   1.3759  0.25017   4.2312E-07 -1.6724E-07  4.5497E-07  -21.566
    57  103   1.2508  -2.5017   1.6261  0.25017  -4.4695E-07 -6.2531E-08  4.5131E-07 -172.036
    58  103   1.2508  -2.5017   1.8763  0.25017  -4.3821E-07 -9.7836E-09  4.3832E-07 -178.721
    59  103   1.2508  -2.5017   2.1264  0.25017   4.8739E-07 -6.1293E-08  4.9123E-07   -7.168
    60  103   1.2508  -2.5017   2.3766  0.25017   5.0531E-07 -5.3958E-08  5.0818E-07   -6.095
    61  104   3.7525  -2.5017  -2.3766  0.25017   6.2302E-08 -1.9425E-07  2.0400E-07  -72.217
    62  104   3.7525  -2.5017  -2.1264  0.25017  -1.7556E-08 -1.7353E-08  2.4684E-08 -135.333
    63  104   3.7525  -2.5017  -1.8763  0.25017  -2.0809E-07  3.9264E-07  4.4438E-07  117.923
    64  104   3.7525  -2.5017  -1.6261  0.25017  -1.2269E-07  1.5345E-07  1.9647E-07  128.644
    65  104   3.7525  -2.5017  -1.3759  0.25017   2.1159E-07 -3.3251E-07  3.9412E-07  -57.529
    66  104   3.7525  -2.5017  -1.1258  0.25017   3.4351E-07 -1.2882E-07  3.6687E-07  -20.556
    67  104   3.7525  -2.5017  -0.8756  0.25017   1.1371E-07  3.7271E-07  3.8967E-07   73.033
    68  104   3.7525  -2.5017  -0.6254  0.25017  -1.2291E-07  1.7530E-07  2.1410E-07  125.037
    69  104   3.7525  -2.5017  -0.3753  0.25017  -9.9424E-08 -3.5487E-07  3.6853E-07 -105.651
    70  104   3.7525  -2.5017  -0.1251  0.25017   2.1816E-08 -1.5720E-07  1.5871E-07  -82.099
    71  104   3.7525  -2.5017   0.1251  0.25017   5.7253E-08  4.5359E-07  4.5719E-07   82.806
    72  104   3.7525  -2.5017   0.3753  0.25017   7.9215E-08  3.5485E-07  3.6359E-07   77.416
    73  104   3.7525  -2.5017   0.6254  0.25017   1.0902E-07 -2.4566E-07  2.6876E-07  -66.069
    74  104   3.7525  -2.5017   0.8756  0.25017   2.2960E-09 -2.3717E-07  2.3718E-07  -89.445
    75  104   3.7525  -2.5017   1.1258  0.25017  -1.6800E-07  2.5424E-07  3.0473E-07  123.456
    76  104   3.7525  -2.5017   1.3759  0.25017  -1.0046E-07  1.6611E-07  1.9412E-07  121.165
    77  104   3.7525  -2.5017   1.6261  0.25017   1.6091E-07 -3.9952E-07  4.3070E-07  -68.062
    78  104   3.7525  -2.5017   1.8763  0.25017   1.8076E-07 -3.7689E-07  4.1799E-07  -64.378
    79  104   3.7525  -2.5017   2.1264  0.25017  -9.9009E-08  1.9876E-07  2.2206E-07  116.479
    80  104   3.7525  -2.5017   2.3766  0.25017  -1.5748E-07  2.6158E-07  3.0533E-07  121.050
    81  201  -3.7525   0.0000  -2.3766  0.25017  -2.4303E-07 -3.9439E-08  2.4620E-07 -170.782
    82  201  -3.7525   0.0000  -2.1264  0.25017  -2.5136E-07 -3.4653E-08  2.5374E-07 -172.151
    83  201  -3.7525   0.0000  -1.8763  0.25017   1.9994E-07  4.3590E-08  2.0464E-07   12.299
    84  201  -3.7525   0.0000  -1.6261  0.25017   2.3483E-07  5.3752E-08  2.4091E-07   12.893
    85  201  -3.7525   0.0000  -1.3759  0.25017  -1.6337E-07 -8.0098E-09  1.6357E-07 -177.193
    86  201  -3.7525   0.0000  -1.1258  0.25017  -1.5574E-07  3.0586E-09  1.5577E-07  178.875
    87  201  -3.7525   0.0000  -0.8756  0.25017   2.5714E-07  9.9302E-08  2.7564E-07   21.116
    88  201  -3.7525   0.0000  -0.6254  0.25017   2.3874E-07  1.1931E-07  2.6689E-07   26.554
    89  201  -3.7525   0.0000  -0.3753  0.25017  -1.9726E-07  2.2248E-08  1.9851E-07  173.565
    90  201  -3.7525   0.0000  -0.1251  0.25017  -2.0139E-07 -3.4170E-08  2.0427E-07 -170.370
    91  201  -3.7525   0.0000   0.1251  0.25017   2.1791E-07  1.2081E-08  2.1824E-07    3.173
    92  201  -3.7525   0.0000   0.3753  0.25017   2.0762E-07  1.9326E-08  2.0851E-07    5.318
    93  201  -3.7525   0.0000   0.6254  0.25017  -2.2929E-07 -6.9336E-08  2.3954E-07 -163.175
    94  201  -3.7525   0.0000   0.8756  0.25017  -2.3914E-07 -9.8978E-08  2.5882E-07 -157.516
    95  201  -3.7525   0.0000   1.1258  0.25017   1.8359E-07  3.2993E-09  1.8361E-07    1.030
    96  201  -3.7525   0.0000   1.3759  0.25017   1.9798E-07  7.1857E-08  2.1062E-07   19.948
    97  201  -3.7525   0.0000   1.6261  0.25017  -1.9079E-07 -1.7069E-09  1.9080E-07 -179.487
    98  201  -3.7525   0.0000   1.8763  0.25017  -1.4451E-07 -7.1583E-08  1.6127E-07 -153.649
    99  201  -3.7525   0.0000   2.1264  0.25017   3.0378E-07 -1.6767E-08  3.0424E-07   -3.159
   100  201  -3.7525   0.0000   2.3766  0.25017   2.6563E-07  3.0949E-08  2.6743E-07    6.646
   101  202  -1.2508   0.0000  -2.3766  0.25017  -1.6661E-07  7.4388E-08  1.8246E-07  155.940
   102  202  -1.2508   0.0000  -2.1264  0.25017  -1.6254E-07  3.5129E-08  1.6630E-07  167.805
   103  202  -1.2508   0.0000  -1.8763  0.25017   1.3569E-07 -1.5739E-07  2.0781E-07  -49.235
   104  202  -1.2508   0.0000  -1.6261  0.25017   1.6303E-07 -1.5239E-07  2.2317E-07  -43.068
   105  202  -1.2508   0.0000  -1.3759  0.25017  -9.5895E-08  3.9905E-08  1.0387E-07  157.406
   106  202  -1.2508   0.0000  -1.1258  0.25017  -1.3180E-07  6.4422E-08  1.4670E-07  153.951
   107  202  -1.2508   0.0000  -0.8756  0.25017   7.8119E-08 -9.8925E-08  1.2605E-07  -51.703
   108  202  -1.2508   0.0000  -0.6254  0.25017   6.5639E-08 -1.1862E-07  1.3557E-07  -61.042
   109  202  -1.2508   0.0000  -0.3753  0.25017  -1.6019E-07  3.0364E-08  1.6304E-07  169.267
   110  202  -1.2508   0.0000  -0.1251  0.25017  -1.2327E-07  4.3064E-08  1.3057E-07  160.743
   111  202  -1.2508   0.0000   0.1251  0.25017   1.5545E-07 -8.8988E-08  1.7911E-07  -29.790
   112  202  -1.2508   0.0000   0.3753  0.25017   1.7401E-07 -7.5514E-08  1.8969E-07  -23.459
   113  202  -1.2508   0.0000   0.6254  0.25017  -7.6339E-08  6.3726E-08  9.9441E-08  140.146
   114  202  -1.2508   0.0000   0.8756  0.25017  -1.1231E-07  3.4173E-08  1.1739E-07  163.076
   115  202  -1.2508   0.0000   1.1258  0.25017   7.6834E-08 -1.1497E-07  1.3828E-07  -56.246
   116  202  -1.2508   0.0000   1.3759  0.25017   3.2657E-08 -5.7630E-08  6.6239E-08  -60.461
   117  202  -1.2508   0.0000   1.6261  0.25017  -2.1144E-07  1.5437E-07  2.6179E-07  143.867
   118  202  -1.2508   0.0000   1.8763  0.25017  -1.5627E-07  1.5681E-07  2.2138E-07  134.901
   119  202  -1.2508   0.0000   2.1264  0.25017   1.5936E-07 -3.9192E-08  1.6411E-07  -13.817
   120  202  -1.2508   0.0000   2.3766  0.25017   1.6563E-07 -7.4164E-08  1.8147E-07  -24.122
   121  203   1.2508   0.0000  -2.3766  0.25017   8.5119E-08 -1.7913E-07  1.9832E-07  -64.583
   122  203   1.2508   0.0000  -2.1264  0.25017  -1.0275E-11 -7.4087E-09  7.4088E-09  -90.079
   123  203   1.2508   0.0000  -1.8763  0.25017  -2.2790E-07  3.7312E-07  4.3721E-07  121.416
   124  203   1.2508   0.0000  -1.6261  0.25017  -1.3010E-07  1.3947E-07  1.9072E-07  133.009
   125  203   1.2508   0.0000  -1.3759  0.25017   2.5021E-07 -3.1540E-07  4.0259E-07  -51.575
   126  203   1.2508   0.0000  -1.1258  0.25017   3.8144E-07 -1.1178E-07  3.9748E-07  -16.333
   127  203   1.2508   0.0000  -0.8756  0.25017   1.1408E-07  3.6314E-07  3.8063E-07   72.560
   128  203   1.2508   0.0000  -0.6254  0.25017  -1.2217E-07  1.6257E-07  2.0336E-07  126.924
   129  203   1.2508   0.0000  -0.3753  0.25017  -6.9001E-08 -3.5061E-07  3.5734E-07 -101.134
   130  203   1.2508   0.0000  -0.1251  0.25017   4.1302E-08 -1.5631E-07  1.6168E-07  -75.199
   131  203   1.2508   0.0000   0.1251  0.25017   3.7239E-08  4.4144E-07  4.4301E-07   85.178
   132  203   1.2508   0.0000   0.3753  0.25017   6.1653E-08  3.5736E-07  3.6264E-07   80.212
   133  203   1.2508   0.0000   0.6254  0.25017   1.2341E-07 -2.2198E-07  2.5398E-07  -60.927
   134  203   1.2508   0.0000   0.8756  0.25017   7.9334E-09 -2.3012E-07  2.3026E-07  -88.026
   135  203   1.2508   0.0000   1.1258  0.25017  -1.9756E-07  2.3138E-07  3.0425E-07  130.492
   136  203   1.2508   0.0000   1.3759  0.25017  -1.1908E-07  1.5254E-07  1.9352E-07  127.976
   137  203   1.2508   0.0000   1.6261  0.25017   1.8465E-07 -3.8657E-07  4.2840E-07  -64.468
   138  203   1.2508   0.0000   1.8763  0.25017   2.0039E-07 -3.7697E-07  4.2692E-07  -62.006
   139  203   1.2508   0.0000   2.1264  0.25017  -1.2074E-07  1.6644E-07  2.0562E-07  125.959
   140  203   1.2508   0.0000   2.3766  0.25017  -1.7838E-07  2.4038E-07  2.9934E-07  126.578
   141  204   3.7525   0.0000  -2.3766  0.25017  -5.8057E-06  1.3170E-05  1.4393E-05  113.789
   142  204   3.7525   0.0000  -2.1264  0.25017  -6.7102E-06  1.0751E-05  1.2674E-05  121.969
   143  204   3.7525   0.0000  -1.8763  0.25017   4.8883E-06 -1.3613E-05  1.4464E-05  -70.247
   144  204   3.7525   0.0000  -1.6261  0.25017   6.9171E-06 -1.0296E-05  1.2404E-05  -56.106
   145  204   3.7525   0.0000  -1.3759  0.25017  -4.5425E-06  1.3771E-05  1.4501E-05  108.255
   146  204   3.7525   0.0000  -1.1258  0.25017  -7.1239E-06  1.0091E-05  1.2352E-05  125.221
   147  204   3.7525   0.0000  -0.8756  0.25017   4.3656E-06 -1.3945E-05  1.4612E-05  -72.616
   148  204   3.7525   0.0000  -0.6254  0.25017   7.5015E-06 -9.9183E-06  1.2436E-05  -52.899
   149  204   3.7525   0.0000  -0.3753  0.25017  -4.2037E-06  1.4363E-05  1.4965E-05  106.314
   150  204   3.7525   0.0000  -0.1251  0.25017  -7.4238E-06  1.1943E-05  1.4062E-05  121.865
   151  204   3.7525   0.0000   0.1251  0.25017   8.4678E-06 -4.9822E-06  9.8247E-06  -30.471
   152  204   3.7525   0.0000   0.3753  0.25017   7.6188E-06 -9.6403E-06  1.2287E-05  -51.680
   153  204   3.7525   0.0000   0.6254  0.25017  -8.4869E-06  5.4391E-06  1.0080E-05  147.345
   154  204   3.7525   0.0000   0.8756  0.25017  -7.5603E-06  9.4991E-06  1.2140E-05  128.516
   155  204   3.7525   0.0000   1.1258  0.25017   8.4106E-06 -5.7318E-06  1.0178E-05  -34.274
   156  204   3.7525   0.0000   1.3759  0.25017   7.6394E-06 -9.3783E-06  1.2096E-05  -50.834
   157  204   3.7525   0.0000   1.6261  0.25017  -8.3207E-06  5.9937E-06  1.0255E-05  144.234
   158  204   3.7525   0.0000   1.8763  0.25017  -7.7949E-06  9.1757E-06  1.2040E-05  130.348
   159  204   3.7525   0.0000   2.1264  0.25017   8.3391E-06 -6.4690E-06  1.0554E-05  -37.802
   160  204   3.7525   0.0000   2.3766  0.25017   8.3599E-06 -8.6180E-06  1.2007E-05  -45.871
   161  301  -3.7525   2.5017  -2.3766  0.25017   1.0649E-07  1.7367E-07  2.0372E-07   58.485
   162  301  -3.7525   2.5017  -2.1264  0.25017   1.0371E-07  1.6712E-07  1.9668E-07   58.177
   163  301  -3.7525   2.5017  -1.8763  0.25017  -9.3508E-08 -1.6879E-07  1.9296E-07 -118.986
   164  301  -3.7525   2.5017  -1.6261  0.25017  -8.7892E-08 -1.9531E-07  2.1417E-07 -114.229
   165  301  -3.7525   2.5017  -1.3759  0.25017   1.0610E-07  9.5862E-08  1.4300E-07   42.097
   166  301  -3.7525   2.5017  -1.1258  0.25017   1.0641E-07  8.9607E-08  1.3911E-07   40.100
   167  301  -3.7525   2.5017  -0.8756  0.25017  -6.7555E-08 -2.2183E-07  2.3189E-07 -106.937
   168  301  -3.7525   2.5017  -0.6254  0.25017  -4.8436E-08 -2.2396E-07  2.2914E-07 -102.203
   169  301  -3.7525   2.5017  -0.3753  0.25017   1.2589E-07  9.7414E-08  1.5918E-07   37.732
   170  301  -3.7525   2.5017  -0.1251  0.25017   8.7528E-08  1.2970E-07  1.5647E-07   55.986
   171  301  -3.7525   2.5017   0.1251  0.25017  -1.1222E-07 -1.4900E-07  1.8653E-07 -126.986
   172  301  -3.7525   2.5017   0.3753  0.25017  -9.7423E-08 -1.3550E-07  1.6689E-07 -125.716
   173  301  -3.7525   2.5017   0.6254  0.25017   8.0930E-08  1.8324E-07  2.0032E-07   66.171
   174  301  -3.7525   2.5017   0.8756  0.25017   5.2737E-08  1.9225E-07  1.9935E-07   74.660
   175  301  -3.7525   2.5017   1.1258  0.25017  -1.2142E-07 -1.2950E-07  1.7752E-07 -133.157
   176  301  -3.7525   2.5017   1.3759  0.25017  -7.7074E-08 -1.6108E-07  1.7857E-07 -115.570
   177  301  -3.7525   2.5017   1.6261  0.25017   1.0227E-07  1.3097E-07  1.6617E-07   52.014
   178  301  -3.7525   2.5017   1.8763  0.25017   3.7963E-08  1.3060E-07  1.3601E-07   73.792
   179  301  -3.7525   2.5017   2.1264  0.25017  -1.7294E-07 -1.9008E-07  2.5698E-07 -132.296
   180  301  -3.7525   2.5017   2.3766  0.25017  -1.2346E-07 -1.8797E-07  2.2488E-07 -123.297
   181  302  -1.2508   2.5017  -2.3766  0.25017   9.2551E-08  1.0212E-07  1.3782E-07   47.815
   182  302  -1.2508   2.5017  -2.1264  0.25017   8.0684E-08  1.3584E-07  1.5800E-07   59.292
   183  302  -1.2508   2.5017  -1.8763  0.25017  -8.2171E-08 -1.0467E-08  8.2835E-08 -172.741
   184  302  -1.2508   2.5017  -1.6261  0.25017  -7.5684E-08 -3.4439E-08  8.3151E-08 -155.532
   185  302  -1.2508   2.5017  -1.3759  0.25017   8.9713E-08  8.1936E-08  1.2150E-07   42.406
   186  302  -1.2508   2.5017  -1.1258  0.25017   1.3043E-07  6.6379E-08  1.4635E-07   26.973
   187  302  -1.2508   2.5017  -0.8756  0.25017   4.4113E-08 -7.3386E-08  8.5624E-08  -58.990
   188  302  -1.2508   2.5017  -0.6254  0.25017   6.6794E-08 -5.9553E-08  8.9487E-08  -41.720
   189  302  -1.2508   2.5017  -0.3753  0.25017   1.6035E-07  8.9819E-08  1.8379E-07   29.255
   190  302  -1.2508   2.5017  -0.1251  0.25017   8.3522E-08  8.3416E-08  1.1804E-07   44.964
   191  302  -1.2508   2.5017   0.1251  0.25017  -1.0084E-07 -6.5377E-08  1.2018E-07 -147.044
   192  302  -1.2508   2.5017   0.3753  0.25017  -1.1761E-07 -5.8409E-08  1.3132E-07 -153.590
   193  302  -1.2508   2.5017   0.6254  0.25017   1.4752E-09  9.8170E-08  9.8181E-08   89.139
   194  302  -1.2508   2.5017   0.8756  0.25017   6.4997E-09  1.0054E-07  1.0075E-07   86.301
   195  302  -1.2508   2.5017   1.1258  0.25017  -6.2373E-08 -6.2811E-08  8.8519E-08 -134.800
   196  302  -1.2508   2.5017   1.3759  0.25017   2.0117E-08 -1.0363E-07  1.0556E-07  -79.014
   197  302  -1.2508   2.5017   1.6261  0.25017   1.5948E-07 -1.0184E-08  1.5980E-07   -3.654
   198  302  -1.2508   2.5017   1.8763  0.25017   8.3036E-08 -4.7897E-08  9.5859E-08  -29.977
   199  302  -1.2508   2.5017   2.1264  0.25017  -1.1257E-07 -1.8637E-07  2.1773E-07 -121.132
   200  302  -1.2508   2.5017   2.3766  0.25017  -9.7371E-08 -1.2177E-07  1.5592E-07 -128.646
   201  303   1.2508   2.5017  -2.3766  0.25017  -5.3279E-07  6.6203E-09  5.3283E-07  179.288
   202  303   1.2508   2.5017  -2.1264  0.25017  -5.7778E-07  2.8754E-08  5.7850E-07  177.151
   203  303   1.2508   2.5017  -1.8763  0.25017   4.1989E-07 -6.5215E-09  4.1994E-07   -0.890
   204  303   1.2508   2.5017  -1.6261  0.25017   5.8292E-07 -2.0175E-09  5.8292E-07   -0.198
   205  303   1.2508   2.5017  -1.3759  0.25017  -2.7236E-07  1.0510E-07  2.9194E-07  158.898
   206  303   1.2508   2.5017  -1.1258  0.25017  -3.8829E-07  1.5118E-07  4.1669E-07  158.726
   207  303   1.2508   2.5017  -0.8756  0.25017   4.3881E-07  2.3825E-08  4.3946E-07    3.108
   208  303   1.2508   2.5017  -0.6254  0.25017   5.2859E-07 -1.1058E-07  5.4003E-07  -11.816
   209  303   1.2508   2.5017  -0.3753  0.25017  -3.0310E-07 -7.8336E-08  3.1306E-07 -165.509
   210  303   1.2508   2.5017  -0.1251  0.25017  -4.1751E-07  4.1353E-08  4.1955E-07  174.343
   211  303   1.2508   2.5017   0.1251  0.25017   3.4847E-07  1.0962E-07  3.6530E-07   17.463
   212  303   1.2508   2.5017   0.3753  0.25017   3.9719E-07  1.3337E-07  4.1898E-07   18.562
   213  303   1.2508   2.5017   0.6254  0.25017  -3.7794E-07  1.2510E-07  3.9811E-07  161.685
   214  303   1.2508   2.5017   0.8756  0.25017  -3.7830E-07  1.9160E-08  3.7878E-07  177.101
   215  303   1.2508   2.5017   1.1258  0.25017   4.3991E-07 -1.3639E-07  4.6057E-07  -17.226
   216  303   1.2508   2.5017   1.3759  0.25017   4.2312E-07 -1.6724E-07  4.5497E-07  -21.566
   217  303   1.2508   2.5017   1.6261  0.25017  -4.4695E-07 -6.2531E-08  4.5131E-07 -172.036
   218  303   1.2508   2.5017   1.8763  0.25017  -4.3821E-07 -9.7836E-09  4.3832E-07 -178.721
   219  303   1.2508   2.5017   2.1264  0.25017   4.8739E-07 -6.1293E-08  4.9123E-07   -7.168
   220  303   1.2508   2.5017   2.3766  0.25017   5.0531E-07 -5.3958E-08  5.0818E-07   -6.095
   221  304   3.7525   2.5017  -2.3766  0.25017   6.2302E-08 -1.9425E-07  2.0400E-07  -72.217
   222  304   3.7525   2.5017  -2.1264  0.25017  -1.7556E-08 -1.7353E-08  2.4684E-08 -135.333
   223  304   3.7525   2.5017  -1.8763  0.25017  -2.0809E-07  3.9264E-07  4.4438E-07  117.923
   224  304   3.7525   2.5017  -1.6261  0.25017  -1.2269E-07  1.5345E-07  1.9647E-07  128.644
   225  304   3.7525   2.5017  -1.3759  0.25017   2.1159E-07 -3.3251E-07  3.9412E-07  -57.529
   226  304   3.7525   2.5017  -1.1258  0.25017   3.4351E-07 -1.2882E-07  3.6687E-07  -20.556
   227  304   3.7525   2.5017  -0.8756  0.25017   1.1371E-07  3.7271E-07  3.8967E-07   73.033
   228  304   3.7525   2.5017  -0.6254  0.25017  -1.2291E-07  1.7530E-07  2.1410E-07  125.037
   229  304   3.7525   2.5017  -0.3753  0.25017  -9.9424E-08 -3.5487E-07  3.6853E-07 -105.651
   230  304   3.7525   2.5017  -0.1251  0.25017   2.1816E-08 -1.5720E-07  1.5871E-07  -82.099
   231  304   3.7525   2.5017   0.1251  0.25017   5.7253E-08  4.5359E-07  4.5719E-07   82.806
   232  304   3.7525   2.5017   0.3753  0.25017   7.9215E-08  3.5485E-07  3.6359E-07   77.416
   233  304   3.7525   2.5017   0.6254  0.25017   1.0902E-07 -2.4566E-07  2.6876E-07  -66.069
   234  304   3.7525   2.5017   0.8756  0.25017   2.2960E-09 -2.3717E-07  2.3718E-07  -89.445
   235  304   3.7525   2.5017   1.1258  0.25017  -1.6800E-07  2.5424E-07  3.0473E-07  123.456
   236  304   3.7525   2.5017   1.3759  0.25017  -1.0046E-07  1.6611E-07  1.9412E-07  121.165
   237  304   3.7525   2.5017   1.6261  0.25017   1.6091E-07 -3.9952E-07  4.3070E-07  -68.062
   238  304   3.7525   2.5017   1.8763  0.25017   1.8076E-07 -3.7689E-07  4.1799E-07  -64.378
   239  304   3.7525   2.5017   2.1264  0.25017  -9.9009E-08  1.9876E-07  2.2206E-07  116.479
   240  304   3.7525   2.5017   2.3766  0.25017  -1.5748E-07  2.6158E-07  3.0533E-07  121.050



                                        - - - POWER BUDGET - - -

                                           INPUT POWER   = 2.7465E-08 WATTS
                                           RADIATED POWER= 2.7465E-08 WATTS
                                           STRUCTURE LOSS= 0.0000E+00 WATTS
                                           NETWORK LOSS  = 0.0000E+00 WATTS
                                           EFFICIENCY    = 100.00 PERCENT



                                                - - - RADIATION PATTERNS - - -

  - - ANGLES - -       - DIRECTIVE GAINS -       - - - POLARIZATION - - -    - - - E(THETA) - - -    - - - E(PHI) - - -
  THETA     PHI        VERT.   HOR.    TOTAL      AXIAL     TILT   SENSE     MAGNITUDE    PHASE      MAGNITUDE    PHASE 
 DEGREES  DEGREES       DB      DB      DB        RATIO     DEG.              VOLTS/M    DEGREES      VOLTS/M    DEGREES
    0.00     0.00    -999.99 -999.99 -999.99    0.00000     0.00            0.00000E+00     0.00    0.00000E+00     0.00
    5.00     0.00      -5.18 -999.99   -5.18    0.00000     0.00  LINEAR    7.06820E-04  -112.99    0.00000E+00     0.00
   10.00     0.00       0.55 -999.99    0.55    0.00000     0.00  LINEAR    1.36728E-03    -1.88    0.00000E+00     0.00
   15.00     0.00       3.49 -999.99    3.49    0.00000     0.00  LINEAR    1.91711E-03   115.96    0.00000E+00     0.00
   20.00     0.00       5.84 -999.99    5.84    0.00000     0.00  LINEAR    2.51413E-03  -124.53    0.00000E+00     0.00
   25.00     0.00       7.19 -999.99    7.19    0.00000     0.00  LINEAR    2.93589E-03   -19.55    0.00000E+00     0.00
   30.00     0.00       6.04 -999.99    6.04    0.00000     0.00  LINEAR    2.57180E-03    84.47    0.00000E+00     0.00
   35.00     0.00       1.00 -999.99    1.00    0.00000     0.00  LINEAR    1.44035E-03  -177.57    0.00000E+00     0.00
   40.00     0.00     -21.92 -999.99  -21.92    0.00000     0.00  LINEAR    1.02899E-04   -71.52    0.00000E+00     0.00
   45.00     0.00      -4.81 -999.99   -4.81    0.00000     0.00  LINEAR    7.37418E-04  -172.00    0.00000E+00     0.00
   50.00     0.00      -7.37 -999.99   -7.37    0.00000     0.00  LINEAR    5.49542E-04   -95.90    0.00000E+00     0.00
   55.00     0.00      -5.25 -999.99   -5.25    0.00000     0.00  LINEAR    7.01053E-04   166.65    0.00000E+00     0.00
   60.00     0.00       2.14 -999.99    2.14    0.00000     0.00  LINEAR    1.64205E-03  -129.34    0.00000E+00     0.00
   65.00     0.00      -1.31 -999.99   -1.31    0.00000     0.00  LINEAR    1.10376E-03   -71.72    0.00000E+00     0.00
   70.00     0.00      -8.94 -999.99   -8.94    0.00000     0.00  LINEAR    4.58493E-04   105.70    0.00000E+00     0.00
   75.00     0.00      -6.08 -999.99   -6.08    0.00000     0.00  LINEAR    6.37085E-04   159.74    0.00000E+00     0.00
   80.00     0.00      -7.37 -999.99   -7.37    0.00000     0.00  LINEAR    5.49208E-04    23.36    0.00000E+00     0.00
   85.00     0.00       0.22 -999.99    0.22    0.00000     0.00  LINEAR    1.31636E-03    40.54    0.00000E+00     0.00
   90.00     0.00      -6.91 -999.99   -6.91    0.00000     0.00  LINEAR    5.79118E-04    71.86    0.00000E+00     0.00
    0.00     5.00    -999.99 -999.99 -999.99    0.00000     0.00            0.00000E+00     0.00    0.00000E+00     0.00
    5.00     5.00      -5.19 -999.99   -5.19    0.00000     0.00  LINEAR    7.06396E-04  -113.44    0.00000E+00     0.00
   10.00     5.00       0.58 -999.99    0.58    0.00000     0.00  LINEAR    1.37139E-03    -2.67    0.00000E+00     0.00
   15.00     5.00       3.55 -999.99    3.55    0.00000     0.00  LINEAR    1.93192E-03   114.58    0.00000E+00     0.00
   20.00     5.00       5.85 -999.99    5.85    0.00000     0.00  LINEAR    2.51552E-03  -127.13    0.00000E+00     0.00
   25.00     5.00       7.20 -999.99    7.20    0.00000     0.00  LINEAR    2.93932E-03   -21.99    0.00000E+00     0.00
   30.00     5.00       5.98 -999.99    5.98    0.00000     0.00  LINEAR    2.55486E-03    81.60    0.00000E+00     0.00
   35.00     5.00       1.00 -999.99    1.00    0.00000     0.00  LINEAR    1.43930E-03   178.71    0.00000E+00     0.00
   40.00     5.00     -29.92 -999.99  -29.92    0.00000     0.00  LINEAR    4.09447E-05   -81.70    0.00000E+00     0.00
   45.00     5.00      -3.89 -999.99   -3.89    0.00000     0.00  LINEAR    8.19981E-04  -179.39    0.00000E+00     0.00
   50.00     5.00      -7.02 -999.99   -7.02    0.00000     0.00  LINEAR    5.71931E-04  -101.37    0.00000E+00     0.00
   55.00     5.00      -5.09 -999.99   -5.09    0.00000     0.00  LINEAR    7.13867E-04   157.50    0.00000E+00     0.00
   60.00     5.00       1.80 -999.99    1.80    0.00000     0.00  LINEAR    1.57806E-03  -139.59    0.00000E+00     0.00
   65.00     5.00      -1.88 -999.99   -1.88    0.00000     0.00  LINEAR    1.03372E-03   -79.35    0.00000E+00     0.00
   70.00     5.00      -9.90 -999.99   -9.90    0.00000     0.00  LINEAR    4.10408E-04   111.04    0.00000E+00     0.00
   75.00     5.00      -5.65 -999.99   -5.65    0.00000     0.00  LINEAR    6.69742E-04   161.11    0.00000E+00     0.00
   80.00     5.00      -7.76 -999.99   -7.76    0.00000     0.00  LINEAR    5.25105E-04    21.05    0.00000E+00     0.00
   85.00     5.00       0.22 -999.99    0.22    0.00000     0.00  LINEAR    1.31675E-03    36.97    0.00000E+00     0.00
   90.00     5.00      -7.70 -999.99   -7.70    0.00000     0.00  LINEAR    5.29059E-04    67.05    0.00000E+00     0.00
    0.00    10.00    -999.99 -999.99 -999.99    0.00000     0.00            0.00000E+00     0.00    0.00000E+00     0.00
    5.00    10.00      -5.20 -999.99   -5.20    0.00000     0.00  LINEAR    7.05154E-04  -114.78    0.00000E+00     0.00
   10.00    10.00       0.65 -999.99    0.65    0.00000     0.00  LINEAR    1.38310E-03    -5.02    0.00000E+00     0.00
   15.00    10.00       3.74 -999.99    3.74    0.00000     0.00  LINEAR    1.97292E-03   110.48    0.00000E+00     0.00
   20.00    10.00       5.90 -999.99    5.90    0.00000     0.00  LINEAR    2.53087E-03  -134.76    0.00000E+00     0.00
   25.00    10.00       7.21 -999.99    7.21    0.00000     0.00  LINEAR    2.94324E-03   -29.14    0.00000E+00     0.00
   30.00    10.00       5.84 -999.99    5.84    0.00000     0.00  LINEAR    2.51517E-03    72.86    0.00000E+00     0.00
   35.00    10.00       0.98 -999.99    0.98    0.00000     0.00  LINEAR    1.43707E-03   168.07    0.00000E+00     0.00
   40.00    10.00     -21.90 -999.99  -21.90    0.00000     0.00  LINEAR    1.03159E-04   108.78    0.00000E+00     0.00
   45.00    10.00      -1.98 -999.99   -1.98    0.00000     0.00  LINEAR    1.02150E-03   165.21    0.00000E+00     0.00
   50.00    10.00      -6.13 -999.99   -6.13    0.00000     0.00  LINEAR    6.33678E-04  -116.26    0.00000E+00     0.00
   55.00    10.00      -4.81 -999.99   -4.81    0.00000     0.00  LINEAR    7.37506E-04   138.75    0.00000E+00     0.00
   60.00    10.00       1.81 -999.99    1.81    0.00000     0.00  LINEAR    1.58010E-03  -164.07    0.00000E+00     0.00
   65.00    10.00      -2.89 -999.99   -2.89    0.00000     0.00  LINEAR    9.20470E-04  -101.82    0.00000E+00     0.00
   70.00    10.00     -11.63 -999.99  -11.63    0.00000     0.00  LINEAR    3.36380E-04   114.01    0.00000E+00     0.00
   75.00    10.00      -5.46 -999.99   -5.46    0.00000     0.00  LINEAR    6.84335E-04   155.90    0.00000E+00     0.00
   80.00    10.00      -7.96 -999.99   -7.96    0.00000     0.00  LINEAR    5.13172E-04     8.61    0.00000E+00     0.00
   85.00    10.00       0.35 -999.99    0.35    0.00000     0.00  LINEAR    1.33593E-03    23.00    0.00000E+00     0.00
   90.00    10.00      -8.89 -999.99   -8.89    0.00000     0.00  LINEAR    4.61371E-04    48.06    0.00000E+00     0.00
    0.00    15.00    -999.99 -999.99 -999.99    0.00000     0.00            0.00000E+00     0.00    0.00000E+00     0.00
    5.00    15.00      -5.22 -999.99   -5.22    0.00000     0.00  LINEAR    7.03189E-04  -117.02    0.00000E+00     0.00
   10.00    15.00       0.76 -999.99    0.76    0.00000     0.00  LINEAR    1.40043E-03    -8.90    0.00000E+00     0.00
   15.00    15.00       3.99 -999.99    3.99    0.00000     0.00  LINEAR    2.03108E-03   103.78    0.00000E+00     0.00
   20.00    15.00       6.09 -999.99    6.09    0.00000     0.00  LINEAR    2.58607E-03  -146.77    0.00000E+00     0.00
   25.00    15.00       7.17 -999.99    7.17    0.00000     0.00  LINEAR    2.92983E-03   -40.75    0.00000E+00     0.00
   30.00    15.00       5.75 -999.99    5.75    0.00000     0.00  LINEAR    2.48717E-03    58.25    0.00000E+00     0.00
   35.00    15.00       0.96 -999.99    0.96    0.00000     0.00  LINEAR    1.43349E-03   151.69    0.00000E+00     0.00
   40.00    15.00     -14.98 -999.99  -14.98    0.00000     0.00  LINEAR    2.28627E-04    93.60    0.00000E+00     0.00
   45.00    15.00      -0.74 -999.99   -0.74    0.00000     0.00  LINEAR    1.17854E-03   147.32    0.00000E+00     0.00
   50.00    15.00      -5.34 -999.99   -5.34    0.00000     0.00  LINEAR    6.94135E-04  -136.85    0.00000E+00     0.00
   55.00    15.00      -5.27 -999.99   -5.27    0.00000     0.00  LINEAR    6.99465E-04   118.48    0.00000E+00     0.00
   60.00    15.00       2.28 -999.99    2.28    0.00000     0.00  LINEAR    1.66872E-03   173.20    0.00000E+00     0.00
   65.00    15.00      -2.86 -999.99   -2.86    0.00000     0.00  LINEAR    9.23707E-04  -128.56    0.00000E+00     0.00
   70.00    15.00     -12.13 -999.99  -12.13    0.00000     0.00  LINEAR    3.17657E-04    81.73    0.00000E+00     0.00
   75.00    15.00      -6.31 -999.99   -6.31    0.00000     0.00  LINEAR    6.20257E-04   130.11    0.00000E+00     0.00
   80.00    15.00      -7.40 -999.99   -7.40    0.00000     0.00  LINEAR    5.47545E-04   -18.27    0.00000E+00     0.00
   85.00    15.00       0.56 -999.99    0.56    0.00000     0.00  LINEAR    1.36830E-03    -3.37    0.00000E+00     0.00
   90.00    15.00      -8.14 -999.99   -8.14    0.00000     0.00  LINEAR    5.02801E-04    19.15    0.00000E+00     0.00
    0.00    20.00    -999.99 -999.99 -999.99    0.00000     0.00            0.00000E+00     0.00    0.00000E+00     0.00
    5.00    20.00      -5.26 -999.99   -5.26    0.00000     0.00  LINEAR    7.00671E-04  -120.15    0.00000E+00     0.00
   10.00    20.00       0.88 -999.99    0.88    0.00000     0.00  LINEAR    1.42006E-03   -14.25    0.00000E+00     0.00
   15.00    20.00       4.26 -999.99    4.26    0.00000     0.00  LINEAR    2.09537E-03    94.55    0.00000E+00     0.00
   20.00    20.00       6.45 -999.99    6.45    0.00000     0.00  LINEAR    2.69741E-03  -161.91    0.00000E+00     0.00
   25.00    20.00       7.04 -999.99    7.04    0.00000     0.00  LINEAR    2.88531E-03   -56.89    0.00000E+00     0.00
   30.00    20.00       5.81 -999.99    5.81    0.00000     0.00  LINEAR    2.50530E-03    38.80    0.00000E+00     0.00
   35.00    20.00       0.93 -999.99    0.93    0.00000     0.00  LINEAR    1.42902E-03   130.61    0.00000E+00     0.00
   40.00    20.00     -13.87 -999.99  -13.87    0.00000     0.00  LINEAR    2.59880E-04    77.09    0.00000E+00     0.00
   45.00    20.00      -0.96 -999.99   -0.96    0.00000     0.00  LINEAR    1.14919E-03   124.56    0.00000E+00     0.00
   50.00    20.00      -5.55 -999.99   -5.55    0.00000     0.00  LINEAR    6.77446E-04  -161.88    0.00000E+00     0.00
   55.00    20.00      -6.04 -999.99   -6.04    0.00000     0.00  LINEAR    6.39844E-04    93.59    0.00000E+00     0.00
   60.00    20.00       1.93 -999.99    1.93    0.00000     0.00  LINEAR    1.60279E-03   151.85    0.00000E+00     0.00
   65.00    20.00      -2.40 -999.99   -2.40    0.00000     0.00  LINEAR    9.73885E-04  -147.56    0.00000E+00     0.00
   70.00    20.00     -10.01 -999.99  -10.01    0.00000     0.00  LINEAR    4.05125E-04    31.11    0.00000E+00     0.00
   75.00    20.00      -6.14 -999.99   -6.14    0.00000     0.00  LINEAR    6.33175E-04    90.57    0.00000E+00     0.00
   80.00    20.00      -7.11 -999.99   -7.11    0.00000     0.00  LINEAR    5.66150E-04   -60.66    0.00000E+00     0.00
   85.00    20.00       0.63 -999.99    0.63    0.00000     0.00  LINEAR    1.38032E-03   -42.40    0.00000E+00     0.00
   90.00    20.00      -7.41 -999.99   -7.41    0.00000     0.00  LINEAR    5.46555E-04   -14.36    0.00000E+00     0.00
    0.00    25.00    -999.99 -999.99 -999.99    0.00000     0.00            0.00000E+00     0.00    0.00000E+00     0.00
    5.00    25.00      -5.29 -999.99   -5.29    0.00000     0.00  LINEAR    6.97855E-04  -124.17    0.00000E+00     0.00
   10.00    25.00       0.99 -999.99    0.99    0.00000     0.00  LINEAR    1.43740E-03   -21.05    0.00000E+00     0.00
   15.00    25.00       4.51 -999.99    4.51    0.00000     0.00  LINEAR    2.15798E-03    82.84    0.00000E+00     0.00
   20.00    25.00       6.91 -999.99    6.91    0.00000     0.00  LINEAR    2.84296E-03  -178.87    0.00000E+00     0.00
   25.00    25.00       6.88 -999.99    6.88    0.00000     0.00  LINEAR    2.83277E-03   -77.82    0.00000E+00     0.00
   30.00    25.00       5.96 -999.99    5.96    0.00000     0.00  LINEAR    2.54978E-03    16.16    0.00000E+00     0.00
   35.00    25.00       0.94 -999.99    0.94    0.00000     0.00  LINEAR    1.43012E-03   105.47    0.00000E+00     0.00
   40.00    25.00     -17.31 -999.99  -17.31    0.00000     0.00  LINEAR    1.74875E-04    60.44    0.00000E+00     0.00
   45.00    25.00      -2.32 -999.99   -2.32    0.00000     0.00  LINEAR    9.82298E-04    93.52    0.00000E+00     0.00
   50.00    25.00      -6.80 -999.99   -6.80    0.00000     0.00  LINEAR    5.86882E-04   165.64    0.00000E+00     0.00
   55.00    25.00      -6.34 -999.99   -6.34    0.00000     0.00  LINEAR    6.18536E-04    63.37    0.00000E+00     0.00
   60.00    25.00       1.26 -999.99    1.26    0.00000     0.00  LINEAR    1.48395E-03   119.73    0.00000E+00     0.00
   65.00    25.00      -3.11 -999.99   -3.11    0.00000     0.00  LINEAR    8.96555E-04  -174.07    0.00000E+00     0.00
   70.00    25.00      -7.69 -999.99   -7.69    0.00000     0.00  LINEAR    5.29427E-04   -19.69    0.00000E+00     0.00
   75.00    25.00      -6.41 -999.99   -6.41    0.00000     0.00  LINEAR    6.13813E-04    47.36    0.00000E+00     0.00
   80.00    25.00      -6.60 -999.99   -6.60    0.00000     0.00  LINEAR    6.00341E-04  -109.10    0.00000E+00     0.00
   85.00    25.00       0.91 -999.99    0.91    0.00000     0.00  LINEAR    1.42567E-03   -87.79    0.00000E+00     0.00
   90.00    25.00      -6.98 -999.99   -6.98    0.00000     0.00  LINEAR    5.74543E-04   -60.97    0.00000E+00     0.00
    0.00    30.00    -999.99 -999.99 -999.99    0.00000     0.00            0.00000E+00     0.00    0.00000E+00     0.00
    5.00    30.00      -5.33 -999.99   -5.33    0.00000     0.00  LINEAR    6.95078E-04  -129.06    0.00000E+00     0.00
   10.00    30.00       1.04 -999.99    1.04    0.00000     0.00  LINEAR    1.44721E-03   -29.30    0.00000E+00     0.00
   15.00    30.00       4.75 -999.99    4.75    0.00000     0.00  LINEAR    2.21743E-03    68.75    0.00000E+00     0.00
   20.00    30.00       7.27 -999.99    7.27    0.00000     0.00  LINEAR    2.96295E-03   162.84    0.00000E+00     0.00
   25.00    30.00       6.88 -999.99    6.88    0.00000     0.00  LINEAR    2.83201E-03  -102.99    0.00000E+00     0.00
   30.00    30.00       5.99 -999.99    5.99    0.00000     0.00  LINEAR    2.55794E-03    -9.45    0.00000E+00     0.00
   35.00    30.00       0.98 -999.99    0.98    0.00000     0.00  LINEAR    1.43654E-03    76.52    0.00000E+00     0.00
   40.00    30.00     -33.31 -999.99  -33.31    0.00000     0.00  LINEAR    2.77292E-05    54.80    0.00000E+00     0.00
   45.00    30.00      -3.95 -999.99   -3.95    0.00000     0.00  LINEAR    8.14160E-04    53.04    0.00000E+00     0.00
   50.00    30.00      -7.80 -999.99   -7.80    0.00000     0.00  LINEAR    5.22930E-04   124.98    0.00000E+00     0.00
   55.00    30.00      -7.28 -999.99   -7.28    0.00000     0.00  LINEAR    5.54874E-04    17.84    0.00000E+00     0.00
   60.00    30.00       0.85 -999.99    0.85    0.00000     0.00  LINEAR    1.41521E-03    72.79    0.00000E+00     0.00
   65.00    30.00      -3.74 -999.99   -3.74    0.00000     0.00  LINEAR    8.34022E-04   127.23    0.00000E+00     0.00
   70.00    30.00      -7.52 -999.99   -7.52    0.00000     0.00  LINEAR    5.39711E-04   -54.46    0.00000E+00     0.00
   75.00    30.00      -5.75 -999.99   -5.75    0.00000     0.00  LINEAR    6.61955E-04    -8.43    0.00000E+00     0.00
   80.00    30.00      -7.02 -999.99   -7.02    0.00000     0.00  LINEAR    5.71804E-04  -156.05    0.00000E+00     0.00
   85.00    30.00       0.52 -999.99    0.52    0.00000     0.00  LINEAR    1.36206E-03  -139.54    0.00000E+00     0.00
   90.00    30.00      -7.14 -999.99   -7.14    0.00000     0.00  LINEAR    5.64240E-04  -110.78    0.00000E+00     0.00
    0.00    35.00    -999.99 -999.99 -999.99    0.00000     0.00            0.00000E+00     0.00    0.00000E+00     0.00
    5.00    35.00      -5.36 -999.99   -5.36    0.00000     0.00  LINEAR    6.92734E-04  -134.78    0.00000E+00     0.00
   10.00    35.00       1.03 -999.99    1.03    0.00000     0.00  LINEAR    1.44476E-03   -39.10    0.00000E+00     0.00
   15.00    35.00       4.97 -999.99    4.97    0.00000     0.00  LINEAR    2.27512E-03    52.59    0.00000E+00     0.00
   20.00    35.00       7.38 -999.99    7.38    0.00000     0.00  LINEAR    3.00152E-03   142.62    0.00000E+00     0.00
   25.00    35.00       7.07 -999.99    7.07    0.00000     0.00  LINEAR    2.89591E-03  -130.50    0.00000E+00     0.00
   30.00    35.00       5.86 -999.99    5.86    0.00000     0.00  LINEAR    2.51945E-03   -39.16    0.00000E+00     0.00
   35.00    35.00       0.97 -999.99    0.97    0.00000     0.00  LINEAR    1.43499E-03    43.08    0.00000E+00     0.00
   40.00    35.00     -26.77 -999.99  -26.77    0.00000     0.00  LINEAR    5.88318E-05  -162.29    0.00000E+00     0.00
   45.00    35.00      -4.28 -999.99   -4.28    0.00000     0.00  LINEAR    7.83978E-04     3.70    0.00000E+00     0.00
   50.00    35.00      -7.64 -999.99   -7.64    0.00000     0.00  LINEAR    5.32668E-04    76.62    0.00000E+00     0.00
   55.00    35.00      -6.37 -999.99   -6.37    0.00000     0.00  LINEAR    6.16552E-04   -45.90    0.00000E+00     0.00
   60.00    35.00       1.07 -999.99    1.07    0.00000     0.00  LINEAR    1.45187E-03     7.94    0.00000E+00     0.00
   65.00    35.00      -2.65 -999.99   -2.65    0.00000     0.00  LINEAR    9.45808E-04    62.46    0.00000E+00     0.00
   70.00    35.00     -12.61 -999.99  -12.61    0.00000     0.00  LINEAR    3.00434E-04  -128.26    0.00000E+00     0.00
   75.00    35.00      -6.80 -999.99   -6.80    0.00000     0.00  LINEAR    5.86319E-04   -69.21    0.00000E+00     0.00
   80.00    35.00      -7.87 -999.99   -7.87    0.00000     0.00  LINEAR    5.18468E-04   156.35    0.00000E+00     0.00
   85.00    35.00       0.40 -999.99    0.40    0.00000     0.00  LINEAR    1.34383E-03   163.59    0.00000E+00     0.00
   90.00    35.00      -7.22 -999.99   -7.22    0.00000     0.00  LINEAR    5.58950E-04  -170.57    0.00000E+00     0.00
    0.00    40.00    -999.99 -999.99 -999.99    0.00000     0.00            0.00000E+00     0.00    0.00000E+00     0.00
    5.00    40.00      -5.37 -999.99   -5.37    0.00000     0.00  LINEAR    6.91216E-04  -141.30    0.00000E+00     0.00
   10.00    40.00       0.93 -999.99    0.93    0.00000     0.00  LINEAR    1.42780E-03   -50.61    0.00000E+00     0.00
   15.00    40.00       5.16 -999.99    5.16    0.00000     0.00  LINEAR    2.32530E-03    34.82    0.00000E+00     0.00
   20.00    40.00       7.25 -999.99    7.25    0.00000     0.00  LINEAR    2.95643E-03   119.37    0.00000E+00     0.00
   25.00    40.00       7.20 -999.99    7.20    0.00000     0.00  LINEAR    2.94016E-03  -159.38    0.00000E+00     0.00
   30.00    40.00       5.70 -999.99    5.70    0.00000     0.00  LINEAR    2.47352E-03   -73.21    0.00000E+00     0.00
   35.00    40.00       0.91 -999.99    0.91    0.00000     0.00  LINEAR    1.42433E-03     4.08    0.00000E+00     0.00
   40.00    40.00     -31.24 -999.99  -31.24    0.00000     0.00  LINEAR    3.51662E-05   146.38    0.00000E+00     0.00
   45.00    40.00      -3.16 -999.99   -3.16    0.00000     0.00  LINEAR    8.92129E-04   -41.76    0.00000E+00     0.00
   50.00    40.00      -5.82 -999.99   -5.82    0.00000     0.00  LINEAR    6.56409E-04    23.74    0.00000E+00     0.00
   55.00    40.00      -5.60 -999.99   -5.60    0.00000     0.00  LINEAR    6.73135E-04  -102.04    0.00000E+00     0.00
   60.00    40.00       2.54 -999.99    2.54    0.00000     0.00  LINEAR    1.71834E-03   -56.94    0.00000E+00     0.00
   65.00    40.00      -2.74 -999.99   -2.74    0.00000     0.00  LINEAR    9.36117E-04   -13.11    0.00000E+00     0.00
   70.00    40.00      -6.69 -999.99   -6.69    0.00000     0.00  LINEAR    5.94386E-04   166.79    0.00000E+00     0.00
   75.00    40.00      -5.29 -999.99   -5.29    0.00000     0.00  LINEAR    6.97717E-04  -152.31    0.00000E+00     0.00
   80.00    40.00      -9.75 -999.99   -9.75    0.00000     0.00  LINEAR    4.17627E-04    74.59    0.00000E+00     0.00
   85.00    40.00      -0.93 -999.99   -0.93    0.00000     0.00  LINEAR    1.15353E-03    87.36    0.00000E+00     0.00
   90.00    40.00      -8.19 -999.99   -8.19    0.00000     0.00  LINEAR    4.99617E-04   121.01    0.00000E+00     0.00
    0.00    45.00    -999.99 -999.99 -999.99    0.00000     0.00            0.00000E+00     0.00    0.00000E+00     0.00
    5.00    45.00      -5.38 -999.99   -5.38    0.00000     0.00  LINEAR    6.90833E-04  -148.51    0.00000E+00     0.00
   10.00    45.00       0.75 -999.99    0.75    0.00000     0.00  LINEAR    1.39882E-03   -64.07    0.00000E+00     0.00
   15.00    45.00       5.25 -999.99    5.25    0.00000     0.00  LINEAR    2.34831E-03    15.75    0.00000E+00     0.00
   20.00    45.00       7.04 -999.99    7.04    0.00000     0.00  LINEAR    2.88542E-03    92.51    0.00000E+00     0.00
   25.00    45.00       7.07 -999.99    7.07    0.00000     0.00  LINEAR    2.89759E-03   168.99    0.00000E+00     0.00
   30.00    45.00       5.43 -999.99    5.43    0.00000     0.00  LINEAR    2.39877E-03  -111.36    0.00000E+00     0.00
   35.00    45.00       0.77 -999.99    0.77    0.00000     0.00  LINEAR    1.40149E-03   -40.50    0.00000E+00     0.00
   40.00    45.00     -30.39 -999.99  -30.39    0.00000     0.00  LINEAR    3.88029E-05    62.46    0.00000E+00     0.00
   45.00    45.00      -3.37 -999.99   -3.37    0.00000     0.00  LINEAR    8.70286E-04   -90.56    0.00000E+00     0.00
   50.00    45.00      -4.84 -999.99   -4.84    0.00000     0.00  LINEAR    7.34669E-04   -26.85    0.00000E+00     0.00
   55.00    45.00      -6.42 -999.99   -6.42    0.00000     0.00  LINEAR    6.13020E-04  -166.23    0.00000E+00     0.00
   60.00    45.00       2.58 -999.99    2.58    0.00000     0.00  LINEAR    1.72795E-03  -121.62    0.00000E+00     0.00
   65.00    45.00      -1.42 -999.99   -1.42    0.00000     0.00  LINEAR    1.09024E-03   -85.59    0.00000E+00     0.00
   70.00    45.00      -8.74 -999.99   -8.74    0.00000     0.00  LINEAR    4.69355E-04   121.57    0.00000E+00     0.00
   75.00    45.00      -5.39 -999.99   -5.39    0.00000     0.00  LINEAR    6.89709E-04   143.16    0.00000E+00     0.00
   80.00    45.00      -6.26 -999.99   -6.26    0.00000     0.00  LINEAR    6.24148E-04    -3.43    0.00000E+00     0.00
   85.00    45.00       0.84 -999.99    0.84    0.00000     0.00  LINEAR    1.41393E-03     7.63    0.00000E+00     0.00
   90.00    45.00      -6.82 -999.99   -6.82    0.00000     0.00  LINEAR    5.85337E-04    35.65    0.00000E+00     0.00
    0.00    50.00    -999.99 -999.99 -999.99    0.00000     0.00            0.00000E+00     0.00    0.00000E+00     0.00
    5.00    50.00      -5.37 -999.99   -5.37    0.00000     0.00  LINEAR    6.91717E-04  -156.35    0.00000E+00     0.00
   10.00    50.00       0.54 -999.99    0.54    0.00000     0.00  LINEAR    1.36634E-03   -79.64    0.00000E+00     0.00
   15.00    50.00       5.14 -999.99    5.14    0.00000     0.00  LINEAR    2.31901E-03    -4.79    0.00000E+00     0.00
   20.00    50.00       6.92 -999.99    6.92    0.00000     0.00  LINEAR    2.84542E-03    62.71    0.00000E+00     0.00
   25.00    50.00       6.84 -999.99    6.84    0.00000     0.00  LINEAR    2.82026E-03   133.07    0.00000E+00     0.00
   30.00    50.00       5.07 -999.99    5.07    0.00000     0.00  LINEAR    2.29970E-03  -155.41    0.00000E+00     0.00
   35.00    50.00       0.50 -999.99    0.50    0.00000     0.00  LINEAR    1.35963E-03   -91.32    0.00000E+00     0.00
   40.00    50.00     -39.10 -999.99  -39.10    0.00000     0.00  LINEAR    1.42409E-05   137.54    0.00000E+00     0.00
   45.00    50.00      -3.24 -999.99   -3.24    0.00000     0.00  LINEAR    8.83930E-04  -156.75    0.00000E+00     0.00
   50.00    50.00      -6.04 -999.99   -6.04    0.00000     0.00  LINEAR    6.39842E-04   -91.12    0.00000E+00     0.00
   55.00    50.00      -7.56 -999.99   -7.56    0.00000     0.00  LINEAR    5.37145E-04   117.04    0.00000E+00     0.00
   60.00    50.00       1.92 -999.99    1.92    0.00000     0.00  LINEAR    1.60001E-03   165.38    0.00000E+00     0.00
[...]
   40.00   315.00     -30.39 -999.99  -30.39    0.00000     0.00  LINEAR    3.88029E-05    62.46    0.00000E+00     0.00
   45.00   315.00      -3.37 -999.99   -3.37    0.00000     0.00  LINEAR    8.70286E-04   -90.56    0.00000E+00     0.00
   50.00   315.00      -4.84 -999.99   -4.84    0.00000     0.00  LINEAR    7.34669E-04   -26.85    0.00000E+00     0.00
   55.00   315.00      -6.42 -999.99   -6.42    0.00000     0.00  LINEAR    6.13020E-04  -166.23    0.00000E+00     0.00
   60.00   315.00       2.58 -999.99    2.58    0.00000     0.00  LINEAR    1.72795E-03  -121.62    0.00000E+00     0.00
   65.00   315.00      -1.42 -999.99   -1.42    0.00000     0.00  LINEAR    1.09024E-03   -85.59    0.00000E+00     0.00
   70.00   315.00      -8.74 -999.99   -8.74    0.00000     0.00  LINEAR    4.69355E-04   121.57    0.00000E+00     0.00
   75.00   315.00      -5.39 -999.99   -5.39    0.00000     0.00  LINEAR    6.89709E-04   143.16    0.00000E+00     0.00
   80.00   315.00      -6.26 -999.99   -6.26    0.00000     0.00  LINEAR    6.24148E-04    -3.43    0.00000E+00     0.00
   85.00   315.00       0.84 -999.99    0.84    0.00000     0.00  LINEAR    1.41393E-03     7.63    0.00000E+00     0.00
   90.00   315.00      -6.82 -999.99   -6.82    0.00000     0.00  LINEAR    5.85337E-04    35.65    0.00000E+00     0.00
    0.00   320.00    -999.99 -999.99 -999.99    0.00000     0.00            0.00000E+00     0.00    0.00000E+00     0.00
    5.00   320.00      -5.37 -999.99   -5.37    0.00000     0.00  LINEAR    6.91216E-04  -141.30    0.00000E+00     0.00
   10.00   320.00       0.93 -999.99    0.93    0.00000     0.00  LINEAR    1.42780E-03   -50.61    0.00000E+00     0.00
   15.00   320.00       5.16 -999.99    5.16    0.00000     0.00  LINEAR    2.32530E-03    34.82    0.00000E+00     0.00
   20.00   320.00       7.25 -999.99    7.25    0.00000     0.00  LINEAR    2.95643E-03   119.37    0.00000E+00     0.00
   25.00   320.00       7.20 -999.99    7.20    0.00000     0.00  LINEAR    2.94016E-03  -159.38    0.00000E+00     0.00
   30.00   320.00       5.70 -999.99    5.70    0.00000     0.00  LINEAR    2.47352E-03   -73.21    0.00000E+00     0.00
   35.00   320.00       0.91 -999.99    0.91    0.00000     0.00  LINEAR    1.42433E-03     4.08    0.00000E+00     0.00
   40.00   320.00     -31.24 -999.99  -31.24    0.00000     0.00  LINEAR    3.51662E-05   146.38    0.00000E+00     0.00
   45.00   320.00      -3.16 -999.99   -3.16    0.00000     0.00  LINEAR    8.92129E-04   -41.76    0.00000E+00     0.00
   50.00   320.00      -5.82 -999.99   -5.82    0.00000     0.00  LINEAR    6.56409E-04    23.74    0.00000E+00     0.00
   55.00   320.00      -5.60 -999.99   -5.60    0.00000     0.00  LINEAR    6.73135E-04  -102.04    0.00000E+00     0.00
   60.00   320.00       2.54 -999.99    2.54    0.00000     0.00  LINEAR    1.71834E-03   -56.94    0.00000E+00     0.00
   65.00   320.00      -2.74 -999.99   -2.74    0.00000     0.00  LINEAR    9.36117E-04   -13.11    0.00000E+00     0.00
   70.00   320.00      -6.69 -999.99   -6.69    0.00000     0.00  LINEAR    5.94386E-04   166.79    0.00000E+00     0.00
   75.00   320.00      -5.29 -999.99   -5.29    0.00000     0.00  LINEAR    6.97717E-04  -152.31    0.00000E+00     0.00
   80.00   320.00      -9.75 -999.99   -9.75    0.00000     0.00  LINEAR    4.17627E-04    74.59    0.00000E+00     0.00
   85.00   320.00      -0.93 -999.99   -0.93    0.00000     0.00  LINEAR    1.15353E-03    87.36    0.00000E+00     0.00
   90.00   320.00      -8.19 -999.99   -8.19    0.00000     0.00  LINEAR    4.99617E-04   121.01    0.00000E+00     0.00
    0.00   325.00    -999.99 -999.99 -999.99    0.00000     0.00            0.00000E+00     0.00    0.00000E+00     0.00
    5.00   325.00      -5.36 -999.99   -5.36    0.00000     0.00  LINEAR    6.92734E-04  -134.78    0.00000E+00     0.00
   10.00   325.00       1.03 -999.99    1.03    0.00000     0.00  LINEAR    1.44476E-03   -39.10    0.00000E+00     0.00
   15.00   325.00       4.97 -999.99    4.97    0.00000     0.00  LINEAR    2.27512E-03    52.59    0.00000E+00     0.00
   20.00   325.00       7.38 -999.99    7.38    0.00000     0.00  LINEAR    3.00152E-03   142.62    0.00000E+00     0.00
   25.00   325.00       7.07 -999.99    7.07    0.00000     0.00  LINEAR    2.89591E-03  -130.50    0.00000E+00     0.00
   30.00   325.00       5.86 -999.99    5.86    0.00000     0.00  LINEAR    2.51945E-03   -39.16    0.00000E+00     0.00
   35.00   325.00       0.97 -999.99    0.97    0.00000     0.00  LINEAR    1.43499E-03    43.08    0.00000E+00     0.00
   40.00   325.00     -26.77 -999.99  -26.77    0.00000     0.00  LINEAR    5.88318E-05  -162.29    0.00000E+00     0.00
   45.00   325.00      -4.28 -999.99   -4.28    0.00000     0.00  LINEAR    7.83978E-04     3.70    0.00000E+00     0.00
   50.00   325.00      -7.64 -999.99   -7.64    0.00000     0.00  LINEAR    5.32668E-04    76.62    0.00000E+00     0.00
   55.00   325.00      -6.37 -999.99   -6.37    0.00000     0.00  LINEAR    6.16552E-04   -45.90    0.00000E+00     0.00
   60.00   325.00       1.07 -999.99    1.07    0.00000     0.00  LINEAR    1.45187E-03     7.94    0.00000E+00     0.00
   65.00   325.00      -2.65 -999.99   -2.65    0.00000     0.00  LINEAR    9.45808E-04    62.46    0.00000E+00     0.00
   70.00   325.00     -12.61 -999.99  -12.61    0.00000     0.00  LINEAR    3.00434E-04  -128.26    0.00000E+00     0.00
   75.00   325.00      -6.80 -999.99   -6.80    0.00000     0.00  LINEAR    5.86319E-04   -69.21    0.00000E+00     0.00
   80.00   325.00      -7.87 -999.99   -7.87    0.00000     0.00  LINEAR    5.18468E-04   156.35    0.00000E+00     0.00
   85.00   325.00       0.40 -999.99    0.40    0.00000     0.00  LINEAR    1.34383E-03   163.59    0.00000E+00     0.00
   90.00   325.00      -7.22 -999.99   -7.22    0.00000     0.00  LINEAR    5.58950E-04  -170.57    0.00000E+00     0.00
    0.00   330.00    -999.99 -999.99 -999.99    0.00000     0.00            0.00000E+00     0.00    0.00000E+00     0.00
    5.00   330.00      -5.33 -999.99   -5.33    0.00000     0.00  LINEAR    6.95078E-04  -129.06    0.00000E+00     0.00
   10.00   330.00       1.04 -999.99    1.04    0.00000     0.00  LINEAR    1.44721E-03   -29.30    0.00000E+00     0.00
   15.00   330.00       4.75 -999.99    4.75    0.00000     0.00  LINEAR    2.21743E-03    68.75    0.00000E+00     0.00
   20.00   330.00       7.27 -999.99    7.27    0.00000     0.00  LINEAR    2.96295E-03   162.84    0.00000E+00     0.00
   25.00   330.00       6.88 -999.99    6.88    0.00000     0.00  LINEAR    2.83201E-03  -102.99    0.00000E+00     0.00
   30.00   330.00       5.99 -999.99    5.99    0.00000     0.00  LINEAR    2.55794E-03    -9.45    0.00000E+00     0.00
   35.00   330.00       0.98 -999.99    0.98    0.00000     0.00  LINEAR    1.43654E-03    76.52    0.00000E+00     0.00
   40.00   330.00     -33.31 -999.99  -33.31    0.00000     0.00  LINEAR    2.77292E-05    54.80    0.00000E+00     0.00
   45.00   330.00      -3.95 -999.99   -3.95    0.00000     0.00  LINEAR    8.14160E-04    53.04    0.00000E+00     0.00
   50.00   330.00      -7.80 -999.99   -7.80    0.00000     0.00  LINEAR    5.22930E-04   124.98    0.00000E+00     0.00
   55.00   330.00      -7.28 -999.99   -7.28    0.00000     0.00  LINEAR    5.54874E-04    17.84    0.00000E+00     0.00
   60.00   330.00       0.85 -999.99    0.85    0.00000     0.00  LINEAR    1.41521E-03    72.79    0.00000E+00     0.00
   65.00   330.00      -3.74 -999.99   -3.74    0.00000     0.00  LINEAR    8.34022E-04   127.23    0.00000E+00     0.00
   70.00   330.00      -7.52 -999.99   -7.52    0.00000     0.00  LINEAR    5.39711E-04   -54.46    0.00000E+00     0.00
   75.00   330.00      -5.75 -999.99   -5.75    0.00000     0.00  LINEAR    6.61955E-04    -8.43    0.00000E+00     0.00
   80.00   330.00      -7.02 -999.99   -7.02    0.00000     0.00  LINEAR    5.71804E-04  -156.05    0.00000E+00     0.00
   85.00   330.00       0.52 -999.99    0.52    0.00000     0.00  LINEAR    1.36206E-03  -139.54    0.00000E+00     0.00
   90.00   330.00      -7.14 -999.99   -7.14    0.00000     0.00  LINEAR    5.64240E-04  -110.78    0.00000E+00     0.00
    0.00   335.00    -999.99 -999.99 -999.99    0.00000     0.00            0.00000E+00     0.00    0.00000E+00     0.00
    5.00   335.00      -5.29 -999.99   -5.29    0.00000     0.00  LINEAR    6.97855E-04  -124.17    0.00000E+00     0.00
   10.00   335.00       0.99 -999.99    0.99    0.00000     0.00  LINEAR    1.43740E-03   -21.05    0.00000E+00     0.00
   15.00   335.00       4.51 -999.99    4.51    0.00000     0.00  LINEAR    2.15798E-03    82.84    0.00000E+00     0.00
   20.00   335.00       6.91 -999.99    6.91    0.00000     0.00  LINEAR    2.84296E-03  -178.87    0.00000E+00     0.00
   25.00   335.00       6.88 -999.99    6.88    0.00000     0.00  LINEAR    2.83277E-03   -77.82    0.00000E+00     0.00
   30.00   335.00       5.96 -999.99    5.96    0.00000     0.00  LINEAR    2.54978E-03    16.16    0.00000E+00     0.00
   35.00   335.00       0.94 -999.99    0.94    0.00000     0.00  LINEAR    1.43012E-03   105.47    0.00000E+00     0.00
   40.00   335.00     -17.31 -999.99  -17.31    0.00000     0.00  LINEAR    1.74875E-04    60.44    0.00000E+00     0.00
   45.00   335.00      -2.32 -999.99   -2.32    0.00000     0.00  LINEAR    9.82298E-04    93.52    0.00000E+00     0.00
   50.00   335.00      -6.80 -999.99   -6.80    0.00000     0.00  LINEAR    5.86882E-04   165.64    0.00000E+00     0.00
   55.00   335.00      -6.34 -999.99   -6.34    0.00000     0.00  LINEAR    6.18536E-04    63.37    0.00000E+00     0.00
   60.00   335.00       1.26 -999.99    1.26    0.00000     0.00  LINEAR    1.48395E-03   119.73    0.00000E+00     0.00
   65.00   335.00      -3.11 -999.99   -3.11    0.00000     0.00  LINEAR    8.96555E-04  -174.07    0.00000E+00     0.00
   70.00   335.00      -7.69 -999.99   -7.69    0.00000     0.00  LINEAR    5.29427E-04   -19.69    0.00000E+00     0.00
   75.00   335.00      -6.41 -999.99   -6.41    0.00000     0.00  LINEAR    6.13813E-04    47.36    0.00000E+00     0.00
   80.00   335.00      -6.60 -999.99   -6.60    0.00000     0.00  LINEAR    6.00341E-04  -109.10    0.00000E+00     0.00
   85.00   335.00       0.91 -999.99    0.91    0.00000     0.00  LINEAR    1.42567E-03   -87.79    0.00000E+00     0.00
   90.00   335.00      -6.98 -999.99   -6.98    0.00000     0.00  LINEAR    5.74543E-04   -60.97    0.00000E+00     0.00
    0.00   340.00    -999.99 -999.99 -999.99    0.00000     0.00            0.00000E+00     0.00    0.00000E+00     0.00
    5.00   340.00      -5.26 -999.99   -5.26    0.00000     0.00  LINEAR    7.00671E-04  -120.15    0.00000E+00     0.00
   10.00   340.00       0.88 -999.99    0.88    0.00000     0.00  LINEAR    1.42006E-03   -14.25    0.00000E+00     0.00
   15.00   340.00       4.26 -999.99    4.26    0.00000     0.00  LINEAR    2.09537E-03    94.55    0.00000E+00     0.00
   20.00   340.00       6.45 -999.99    6.45    0.00000     0.00  LINEAR    2.69741E-03  -161.91    0.00000E+00     0.00
   25.00   340.00       7.04 -999.99    7.04    0.00000     0.00  LINEAR    2.88531E-03   -56.89    0.00000E+00     0.00
   30.00   340.00       5.81 -999.99    5.81    0.00000     0.00  LINEAR    2.50530E-03    38.80    0.00000E+00     0.00
   35.00   340.00       0.93 -999.99    0.93    0.00000     0.00  LINEAR    1.42902E-03   130.61    0.00000E+00     0.00
   40.00   340.00     -13.87 -999.99  -13.87    0.00000     0.00  LINEAR    2.59880E-04    77.09    0.00000E+00     0.00
   45.00   340.00      -0.96 -999.99   -0.96    0.00000     0.00  LINEAR    1.14919E-03   124.56    0.00000E+00     0.00
   50.00   340.00      -5.55 -999.99   -5.55    0.00000     0.00  LINEAR    6.77446E-04  -161.88    0.00000E+00     0.00
   55.00   340.00      -6.04 -999.99   -6.04    0.00000     0.00  LINEAR    6.39844E-04    93.59    0.00000E+00     0.00
   60.00   340.00       1.93 -999.99    1.93    0.00000     0.00  LINEAR    1.60279E-03   151.85    0.00000E+00     0.00
   65.00   340.00      -2.40 -999.99   -2.40    0.00000     0.00  LINEAR    9.73885E-04  -147.56    0.00000E+00     0.00
   70.00   340.00     -10.01 -999.99  -10.01    0.00000     0.00  LINEAR    4.05125E-04    31.11    0.00000E+00     0.00
   75.00   340.00      -6.14 -999.99   -6.14    0.00000     0.00  LINEAR    6.33175E-04    90.57    0.00000E+00     0.00
   80.00   340.00      -7.11 -999.99   -7.11    0.00000     0.00  LINEAR    5.66150E-04   -60.66    0.00000E+00     0.00
   85.00   340.00       0.63 -999.99    0.63    0.00000     0.00  LINEAR    1.38032E-03   -42.40    0.00000E+00     0.00
   90.00   340.00      -7.41 -999.99   -7.41    0.00000     0.00  LINEAR    5.46555E-04   -14.36    0.00000E+00     0.00
    0.00   345.00    -999.99 -999.99 -999.99    0.00000     0.00            0.00000E+00     0.00    0.00000E+00     0.00
    5.00   345.00      -5.22 -999.99   -5.22    0.00000     0.00  LINEAR    7.03189E-04  -117.02    0.00000E+00     0.00
   10.00   345.00       0.76 -999.99    0.76    0.00000     0.00  LINEAR    1.40043E-03    -8.90    0.00000E+00     0.00
   15.00   345.00       3.99 -999.99    3.99    0.00000     0.00  LINEAR    2.03108E-03   103.78    0.00000E+00     0.00
   20.00   345.00       6.09 -999.99    6.09    0.00000     0.00  LINEAR    2.58607E-03  -146.77    0.00000E+00     0.00
   25.00   345.00       7.17 -999.99    7.17    0.00000     0.00  LINEAR    2.92983E-03   -40.75    0.00000E+00     0.00
   30.00   345.00       5.75 -999.99    5.75    0.00000     0.00  LINEAR    2.48717E-03    58.25    0.00000E+00     0.00
   35.00   345.00       0.96 -999.99    0.96    0.00000     0.00  LINEAR    1.43349E-03   151.69    0.00000E+00     0.00
   40.00   345.00     -14.98 -999.99  -14.98    0.00000     0.00  LINEAR    2.28627E-04    93.60    0.00000E+00     0.00
   45.00   345.00      -0.74 -999.99   -0.74    0.00000     0.00  LINEAR    1.17854E-03   147.32    0.00000E+00     0.00
   50.00   345.00      -5.34 -999.99   -5.34    0.00000     0.00  LINEAR    6.94135E-04  -136.85    0.00000E+00     0.00
   55.00   345.00      -5.27 -999.99   -5.27    0.00000     0.00  LINEAR    6.99465E-04   118.48    0.00000E+00     0.00
   60.00   345.00       2.28 -999.99    2.28    0.00000     0.00  LINEAR    1.66872E-03   173.20    0.00000E+00     0.00
   65.00   345.00      -2.86 -999.99   -2.86    0.00000     0.00  LINEAR    9.23707E-04  -128.56    0.00000E+00     0.00
   70.00   345.00     -12.13 -999.99  -12.13    0.00000     0.00  LINEAR    3.17657E-04    81.73    0.00000E+00     0.00
   75.00   345.00      -6.31 -999.99   -6.31    0.00000     0.00  LINEAR    6.20257E-04   130.11    0.00000E+00     0.00
   80.00   345.00      -7.40 -999.99   -7.40    0.00000     0.00  LINEAR    5.47545E-04   -18.27    0.00000E+00     0.00
   85.00   345.00       0.56 -999.99    0.56    0.00000     0.00  LINEAR    1.36830E-03    -3.37    0.00000E+00     0.00
   90.00   345.00      -8.14 -999.99   -8.14    0.00000     0.00  LINEAR    5.02801E-04    19.15    0.00000E+00     0.00
    0.00   350.00    -999.99 -999.99 -999.99    0.00000     0.00            0.00000E+00     0.00    0.00000E+00     0.00
    5.00   350.00      -5.20 -999.99   -5.20    0.00000     0.00  LINEAR    7.05154E-04  -114.78    0.00000E+00     0.00
   10.00   350.00       0.65 -999.99    0.65    0.00000     0.00  LINEAR    1.38310E-03    -5.02    0.00000E+00     0.00
   15.00   350.00       3.74 -999.99    3.74    0.00000     0.00  LINEAR    1.97292E-03   110.48    0.00000E+00     0.00
   20.00   350.00       5.90 -999.99    5.90    0.00000     0.00  LINEAR    2.53087E-03  -134.76    0.00000E+00     0.00
   25.00   350.00       7.21 -999.99    7.21    0.00000     0.00  LINEAR    2.94324E-03   -29.14    0.00000E+00     0.00
   30.00   350.00       5.84 -999.99    5.84    0.00000     0.00  LINEAR    2.51517E-03    72.86    0.00000E+00     0.00
   35.00   350.00       0.98 -999.99    0.98    0.00000     0.00  LINEAR    1.43707E-03   168.07    0.00000E+00     0.00
   40.00   350.00     -21.90 -999.99  -21.90    0.00000     0.00  LINEAR    1.03159E-04   108.78    0.00000E+00     0.00
   45.00   350.00      -1.98 -999.99   -1.98    0.00000     0.00  LINEAR    1.02150E-03   165.21    0.00000E+00     0.00
   50.00   350.00      -6.13 -999.99   -6.13    0.00000     0.00  LINEAR    6.33678E-04  -116.26    0.00000E+00     0.00
   55.00   350.00      -4.81 -999.99   -4.81    0.00000     0.00  LINEAR    7.37506E-04   138.75    0.00000E+00     0.00
   60.00   350.00       1.81 -999.99    1.81    0.00000     0.00  LINEAR    1.58010E-03  -164.07    0.00000E+00     0.00
   65.00   350.00      -2.89 -999.99   -2.89    0.00000     0.00  LINEAR    9.20470E-04  -101.82    0.00000E+00     0.00
   70.00   350.00     -11.63 -999.99  -11.63    0.00000     0.00  LINEAR    3.36380E-04   114.01    0.00000E+00     0.00
   75.00   350.00      -5.46 -999.99   -5.46    0.00000     0.00  LINEAR    6.84335E-04   155.90    0.00000E+00     0.00
   80.00   350.00      -7.96 -999.99   -7.96    0.00000     0.00  LINEAR    5.13172E-04     8.61    0.00000E+00     0.00
   85.00   350.00       0.35 -999.99    0.35    0.00000     0.00  LINEAR    1.33593E-03    23.00    0.00000E+00     0.00
   90.00   350.00      -8.89 -999.99   -8.89    0.00000     0.00  LINEAR    4.61371E-04    48.06    0.00000E+00     0.00
    0.00   355.00    -999.99 -999.99 -999.99    0.00000     0.00            0.00000E+00     0.00    0.00000E+00     0.00
    5.00   355.00      -5.19 -999.99   -5.19    0.00000     0.00  LINEAR    7.06396E-04  -113.44    0.00000E+00     0.00
   10.00   355.00       0.58 -999.99    0.58    0.00000     0.00  LINEAR    1.37139E-03    -2.67    0.00000E+00     0.00
   15.00   355.00       3.55 -999.99    3.55    0.00000     0.00  LINEAR    1.93192E-03   114.58    0.00000E+00     0.00
   20.00   355.00       5.85 -999.99    5.85    0.00000     0.00  LINEAR    2.51552E-03  -127.13    0.00000E+00     0.00
   25.00   355.00       7.20 -999.99    7.20    0.00000     0.00  LINEAR    2.93932E-03   -21.99    0.00000E+00     0.00
   30.00   355.00       5.98 -999.99    5.98    0.00000     0.00  LINEAR    2.55486E-03    81.60    0.00000E+00     0.00
   35.00   355.00       1.00 -999.99    1.00    0.00000     0.00  LINEAR    1.43930E-03   178.71    0.00000E+00     0.00
   40.00   355.00     -29.92 -999.99  -29.92    0.00000     0.00  LINEAR    4.09447E-05   -81.70    0.00000E+00     0.00
   45.00   355.00      -3.89 -999.99   -3.89    0.00000     0.00  LINEAR    8.19981E-04  -179.39    0.00000E+00     0.00
   50.00   355.00      -7.02 -999.99   -7.02    0.00000     0.00  LINEAR    5.71931E-04  -101.37    0.00000E+00     0.00
   55.00   355.00      -5.09 -999.99   -5.09    0.00000     0.00  LINEAR    7.13867E-04   157.50    0.00000E+00     0.00
   60.00   355.00       1.80 -999.99    1.80    0.00000     0.00  LINEAR    1.57806E-03  -139.59    0.00000E+00     0.00
   65.00   355.00      -1.88 -999.99   -1.88    0.00000     0.00  LINEAR    1.03372E-03   -79.35    0.00000E+00     0.00
   70.00   355.00      -9.90 -999.99   -9.90    0.00000     0.00  LINEAR    4.10408E-04   111.04    0.00000E+00     0.00
   75.00   355.00      -5.65 -999.99   -5.65    0.00000     0.00  LINEAR    6.69742E-04   161.11    0.00000E+00     0.00
   80.00   355.00      -7.76 -999.99   -7.76    0.00000     0.00  LINEAR    5.25105E-04    21.05    0.00000E+00     0.00
   85.00   355.00       0.22 -999.99    0.22    0.00000     0.00  LINEAR    1.31675E-03    36.97    0.00000E+00     0.00
   90.00   355.00      -7.70 -999.99   -7.70    0.00000     0.00  LINEAR    5.29059E-04    67.05    0.00000E+00     0.00






 ***** DATA CARD NO. 16   EN   0     0     0     0  0.00000E+00  0.00000E+00  0.00000E+00  0.00000E+00  0.00000E+00  0.00000E+00

 RUN TIME =     0.219
