1



                                 *********************************************

                                    NUMERICAL ELECTROMAGNETICS CODE (NEC-2D)

                                 *********************************************




                                     - - - - COMMENTS - - - -


                                                                                                     
                                                                                                     




                                 - - - STRUCTURE SPECIFICATION - - -

                                     COORDINATES MUST BE INPUT IN
                                     METERS OR BE SCALED TO METERS
                                     BEFORE STRUCTURE INPUT IS ENDED


  WIRE                                                                               NO. OF    FIRST  LAST     TAG
  NO.        X1         Y1         Z1          X2         Y2         Z2      RADIUS   SEG.     SEG.   SEG.     NO.
     1    5.00000    5.00000    0.35000     6.76777    6.76777    2.70000    0.00100     25        1    25     101
     2    6.76777    6.76777    2.70000     5.00000    5.00000   15.20000    0.00100     50       26    75     102
     3    5.00000    5.00000    0.35000     7.50000    5.00000    2.70000    0.00100     25       76   100     103
     4    7.50000    5.00000    2.70000     5.00000    5.00000   15.20000    0.00100     50      101   150     104
     5    5.00000    5.00000    0.35000     6.76777    3.23223    2.70000    0.00100     25      151   175     105
     6    6.76777    3.23223    2.70000     5.00000    5.00000   15.20000    0.00100     50      176   225     106
     7    5.00000    5.00000    0.35000     5.00000    2.50000    2.70000    0.00100     25      226   250     107
     8    5.00000    2.50000    2.70000     5.00000    5.00000   15.20000    0.00100     50      251   300     108
     9    5.00000    5.00000    0.35000     3.23223    3.23223    2.70000    0.00100     25      301   325     109
    10    3.23223    3.23223    2.70000     5.00000    5.00000   15.20000    0.00100     50      326   375     110
    11    5.00000    5.00000    0.35000     2.50000    5.00000    2.70000    0.00100     25      376   400     111
    12    2.50000    5.00000    2.70000     5.00000    5.00000   15.20000    0.00100     50      401   450     112
    13    5.00000    5.00000    0.35000     3.23223    6.76777    2.70000    0.00100     25      451   475     113
    14    3.23223    6.76777    2.70000     5.00000    5.00000   15.20000    0.00100     50      476   525     114
    15    5.00000    5.00000    0.35000     5.00000    7.50000    2.70000    0.00100     25      526   550     115
    16    5.00000    7.50000    2.70000     5.00000    5.00000   15.20000    0.00100     50      551   600     116
    17    5.00000    5.00000    0.20000     5.00000    5.00000    0.35000    0.00100      3      601   603     199
    18   -5.00000    5.00000    0.35000    -3.23223    6.76777    2.70000    0.00100     25      604   628     201
    19   -3.23223    6.76777    2.70000    -5.00000    5.00000   15.20000    0.00100     50      629   678     202
    20   -5.00000    5.00000    0.35000    -2.50000    5.00000    2.70000    0.00100     25      679   703     203
    21   -2.50000    5.00000    2.70000    -5.00000    5.00000   15.20000    0.00100     50      704   753     204
    22   -5.00000    5.00000    0.35000    -3.23223    3.23223    2.70000    0.00100     25      754   778     205
    23   -3.23223    3.23223    2.70000    -5.00000    5.00000   15.20000    0.00100     50      779   828     206
    24   -5.00000    5.00000    0.35000    -5.00000    2.50000    2.70000    0.00100     25      829   853     207
    25   -5.00000    2.50000    2.70000    -5.00000    5.00000   15.20000    0.00100     50      854   903     208
    26   -5.00000    5.00000    0.35000    -6.76777    3.23223    2.70000    0.00100     25      904   928     209
    27   -6.76777    3.23223    2.70000    -5.00000    5.00000   15.20000    0.00100     50      929   978     210
    28   -5.00000    5.00000    0.35000    -7.50000    5.00000    2.70000    0.00100     25      979  1003     211
    29   -7.50000    5.00000    2.70000    -5.00000    5.00000   15.20000    0.00100     50     1004  1053     212
    30   -5.00000    5.00000    0.35000    -6.76777    6.76777    2.70000    0.00100     25     1054  1078     213
    31   -6.76777    6.76777    2.70000    -5.00000    5.00000   15.20000    0.00100     50     1079  1128     214
    32   -5.00000    5.00000    0.35000    -5.00000    7.50000    2.70000    0.00100     25     1129  1153     215
    33   -5.00000    7.50000    2.70000    -5.00000    5.00000   15.20000    0.00100     50     1154  1203     216
    34   -5.00000    5.00000    0.20000    -5.00000    5.00000    0.35000    0.00100      3     1204  1206     299
    35    5.00000   -5.00000    0.35000     6.76777   -3.23223    2.70000    0.00100     25     1207  1231     301
    36    6.76777   -3.23223    2.70000     5.00000   -5.00000   15.20000    0.00100     50     1232  1281     302
    37    5.00000   -5.00000    0.35000     7.50000   -5.00000    2.70000    0.00100     25     1282  1306     303
    38    7.50000   -5.00000    2.70000     5.00000   -5.00000   15.20000    0.00100     50     1307  1356     304
    39    5.00000   -5.00000    0.35000     6.76777   -6.76777    2.70000    0.00100     25     1357  1381     305
    40    6.76777   -6.76777    2.70000     5.00000   -5.00000   15.20000    0.00100     50     1382  1431     306
    41    5.00000   -5.00000    0.35000     5.00000   -7.50000    2.70000    0.00100     25     1432  1456     307
    42    5.00000   -7.50000    2.70000     5.00000   -5.00000   15.20000    0.00100     50     1457  1506     308
    43    5.00000   -5.00000    0.35000     3.23223   -6.76777    2.70000    0.00100     25     1507  1531     309
    44    3.23223   -6.76777    2.70000     5.00000   -5.00000   15.20000    0.00100     50     1532  1581     310
    45    5.00000   -5.00000    0.35000     2.50000   -5.00000    2.70000    0.00100     25     1582  1606     311
    46    2.50000   -5.00000    2.70000     5.00000   -5.00000   15.20000    0.00100     50     1607  1656     312
    47    5.00000   -5.00000    0.35000     3.23223   -3.23223    2.70000    0.00100     25     1657  1681     313
    48    3.23223   -3.23223    2.70000     5.00000   -5.00000   15.20000    0.00100     50     1682  1731     314
    49    5.00000   -5.00000    0.35000     5.00000   -2.50000    2.70000    0.00100     25     1732  1756     315
    50    5.00000   -2.50000    2.70000     5.00000   -5.00000   15.20000    0.00100     50     1757  1806     316
    51    5.00000   -5.00000    0.20000     5.00000   -5.00000    0.35000    0.00100      3     1807  1809     399
    52   -5.00000   -5.00000    0.35000    -3.23223   -3.23223    2.70000    0.00100     25     1810  1834     401
    53   -3.23223   -3.23223    2.70000    -5.00000   -5.00000   15.20000    0.00100     50     1835  1884     402
    54   -5.00000   -5.00000    0.35000    -2.50000   -5.00000    2.70000    0.00100     25     1885  1909     403
    55   -2.50000   -5.00000    2.70000    -5.00000   -5.00000   15.20000    0.00100     50     1910  1959     404
    56   -5.00000   -5.00000    0.35000    -3.23223   -6.76777    2.70000    0.00100     25     1960  1984     405
    57   -3.23223   -6.76777    2.70000    -5.00000   -5.00000   15.20000    0.00100     50     1985  2034     406
    58   -5.00000   -5.00000    0.35000    -5.00000   -7.50000    2.70000    0.00100     25     2035  2059     407
    59   -5.00000   -7.50000    2.70000    -5.00000   -5.00000   15.20000    0.00100     50     2060  2109     408
    60   -5.00000   -5.00000    0.35000    -6.76777   -6.76777    2.70000    0.00100     25     2110  2134     409
    61   -6.76777   -6.76777    2.70000    -5.00000   -5.00000   15.20000    0.00100     50     2135  2184     410
    62   -5.00000   -5.00000    0.35000    -7.50000   -5.00000    2.70000    0.00100     25     2185  2209     411
    63   -7.50000   -5.00000    2.70000    -5.00000   -5.00000   15.20000    0.00100     50     2210  2259     412
    64   -5.00000   -5.00000    0.35000    -6.76777   -3.23223    2.70000    0.00100     25     2260  2284     413
    65   -6.76777   -3.23223    2.70000    -5.00000   -5.00000   15.20000    0.00100     50     2285  2334     414
    66   -5.00000   -5.00000    0.35000    -5.00000   -2.50000    2.70000    0.00100     25     2335  2359     415
    67   -5.00000   -2.50000    2.70000    -5.00000   -5.00000   15.20000    0.00100     50     2360  2409     416
    68   -5.00000   -5.00000    0.20000    -5.00000   -5.00000    0.35000    0.00100      3     2410  2412     499
    69    5.00000    5.00000    0.20000     5.00000    5.20000    0.20000    0.00100      4     2413  2416     500
    70    5.00000    5.20000    0.20000     5.00000   20.00000    0.20000    0.00100     50     2417  2466     501
    71    5.00000    5.00000    0.20000     5.06180    5.19021    0.20000    0.00100      4     2467  2470     502
    72    5.06180    5.19021    0.20000     9.63526   19.26580    0.20000    0.00100     50     2471  2520     503
    73    5.00000    5.00000    0.20000     5.11756    5.16180    0.20000    0.00100      4     2521  2524     504
    74    5.11756    5.16180    0.20000    13.81680   17.13530    0.20000    0.00100     50     2525  2574     505
    75    5.00000    5.00000    0.20000     5.16180    5.11756    0.20000    0.00100      4     2575  2578     506
    76    5.16180    5.11756    0.20000    17.13530   13.81680    0.20000    0.00100     50     2579  2628     507
    77    5.00000    5.00000    0.20000     5.19021    5.06180    0.20000    0.00100      4     2629  2632     508
    78    5.19021    5.06180    0.20000    19.26580    9.63526    0.20000    0.00100     50     2633  2682     509
    79    5.00000    5.00000    0.20000     5.20000    5.00000    0.20000    0.00100      4     2683  2686     510
    80    5.20000    5.00000    0.20000    20.00000    5.00000    0.20000    0.00100     50     2687  2736     511
    81   -5.00000    5.00000    0.20000    -5.20000    5.00000    0.20000    0.00100      4     2737  2740     600
    82   -5.20000    5.00000    0.20000   -20.00000    5.00000    0.20000    0.00100     50     2741  2790     601
    83   -5.00000    5.00000    0.20000    -5.19021    5.06180    0.20000    0.00100      4     2791  2794     602
    84   -5.19021    5.06180    0.20000   -19.26580    9.63526    0.20000    0.00100     50     2795  2844     603
    85   -5.00000    5.00000    0.20000    -5.16180    5.11756    0.20000    0.00100      4     2845  2848     604
    86   -5.16180    5.11756    0.20000   -17.13530   13.81680    0.20000    0.00100     50     2849  2898     605
    87   -5.00000    5.00000    0.20000    -5.11756    5.16180    0.20000    0.00100      4     2899  2902     606
    88   -5.11756    5.16180    0.20000   -13.81680   17.13530    0.20000    0.00100     50     2903  2952     607
    89   -5.00000    5.00000    0.20000    -5.06180    5.19021    0.20000    0.00100      4     2953  2956     608
    90   -5.06180    5.19021    0.20000    -9.63526   19.26580    0.20000    0.00100     50     2957  3006     609
    91   -5.00000    5.00000    0.20000    -5.00000    5.20000    0.20000    0.00100      4     3007  3010     610
    92   -5.00000    5.20000    0.20000    -5.00000   20.00000    0.20000    0.00100     50     3011  3060     611
    93    5.00000   -5.00000    0.20000     5.20000   -5.00000    0.20000    0.00100      4     3061  3064     700
    94    5.20000   -5.00000    0.20000    20.00000   -5.00000    0.20000    0.00100     50     3065  3114     701
    95    5.00000   -5.00000    0.20000     5.19021   -5.06180    0.20000    0.00100      4     3115  3118     702
    96    5.19021   -5.06180    0.20000    19.26580   -9.63526    0.20000    0.00100     50     3119  3168     703
    97    5.00000   -5.00000    0.20000     5.16180   -5.11756    0.20000    0.00100      4     3169  3172     704
    98    5.16180   -5.11756    0.20000    17.13530  -13.81680    0.20000    0.00100     50     3173  3222     705
    99    5.00000   -5.00000    0.20000     5.11756   -5.16180    0.20000    0.00100      4     3223  3226     706
   100    5.11756   -5.16180    0.20000    13.81680  -17.13530    0.20000    0.00100     50     3227  3276     707
   101    5.00000   -5.00000    0.20000     5.06180   -5.19021    0.20000    0.00100      4     3277  3280     708
   102    5.06180   -5.19021    0.20000     9.63526  -19.26580    0.20000    0.00100     50     3281  3330     709
   103    5.00000   -5.00000    0.20000     5.00000   -5.20000    0.20000    0.00100      4     3331  3334     710
   104    5.00000   -5.20000    0.20000     5.00000  -20.00000    0.20000    0.00100     50     3335  3384     711
   105   -5.00000   -5.00000    0.20000    -5.00000   -5.20000    0.20000    0.00100      4     3385  3388     800
   106   -5.00000   -5.20000    0.20000    -5.00000  -20.00000    0.20000    0.00100     50     3389  3438     801
   107   -5.00000   -5.00000    0.20000    -5.06180   -5.19021    0.20000    0.00100      4     3439  3442     802
   108   -5.06180   -5.19021    0.20000    -9.63526  -19.26580    0.20000    0.00100     50     3443  3492     803
   109   -5.00000   -5.00000    0.20000    -5.11756   -5.16180    0.20000    0.00100      4     3493  3496     804
   110   -5.11756   -5.16180    0.20000   -13.81680  -17.13530    0.20000    0.00100     50     3497  3546     805
   111   -5.00000   -5.00000    0.20000    -5.16180   -5.11756    0.20000    0.00100      4     3547  3550     806
   112   -5.16180   -5.11756    0.20000   -17.13530  -13.81680    0.20000    0.00100     50     3551  3600     807
   113   -5.00000   -5.00000    0.20000    -5.19021   -5.06180    0.20000    0.00100      4     3601  3604     808
   114   -5.19021   -5.06180    0.20000   -19.26580   -9.63526    0.20000    0.00100     50     3605  3654     809
   115   -5.00000   -5.00000    0.20000    -5.20000   -5.00000    0.20000    0.00100      4     3655  3658     810
   116   -5.20000   -5.00000    0.20000   -20.00000   -5.00000    0.20000    0.00100     50     3659  3708     811

   GROUND PLANE SPECIFIED.

   WHERE WIRE ENDS TOUCH GROUND, CURRENT WILL BE INTERPOLATED TO IMAGE IN GROUND PLANE.


   TOTAL SEGMENTS USED= 3708     NO. SEG. IN A SYMMETRIC CELL= 3708     SYMMETRY FLAG=  0


         - MULTIPLE WIRE JUNCTIONS -
 JUNCTION    SEGMENTS  (- FOR END 1, + FOR END 2)
     1        -1  -76 -151 -226 -301 -376 -451 -526  603
     2        75  150  225  300  375  450  525  600
     3      -601-2413-2467-2521-2575-2629-2683
     4      -604 -679 -754 -829 -904 -979-1054-1129 1206
     5       678  753  828  903  978 1053 1128 1203
     6     -1204-2737-2791-2845-2899-2953-3007
     7     -1207-1282-1357-1432-1507-1582-1657-1732 1809
     8      1281 1356 1431 1506 1581 1656 1731 1806
     9     -1807-3061-3115-3169-3223-3277-3331
    10     -1810-1885-1960-2035-2110-2185-2260-2335 2412
    11      1884 1959 2034 2109 2184 2259 2334 2409
    12     -2410-3385-3439-3493-3547-3601-3655




                                 - - - - SEGMENTATION DATA - - - -

                                        COORDINATES IN METERS

                         I+ AND I- INDICATE THE SEGMENTS BEFORE AND AFTER I


  SEG.   COORDINATES OF SEG. CENTER     SEG.     ORIENTATION ANGLES    WIRE    CONNECTION DATA   TAG
  NO.       X         Y         Z       LENGTH     ALPHA     BETA      RADIUS    I-   I    I+    NO.
     1   5.03536   5.03536   0.39700   0.13724   43.22848  45.00000   0.00100   -76    1    2    101
     2   5.10607   5.10607   0.49100   0.13724   43.22848  45.00000   0.00100     1    2    3    101
     3   5.17678   5.17678   0.58500   0.13724   43.22848  45.00000   0.00100     2    3    4    101
     4   5.24749   5.24749   0.67900   0.13724   43.22848  45.00000   0.00100     3    4    5    101
     5   5.31820   5.31820   0.77300   0.13724   43.22848  45.00000   0.00100     4    5    6    101
     6   5.38891   5.38891   0.86700   0.13724   43.22848  45.00000   0.00100     5    6    7    101
     7   5.45962   5.45962   0.96100   0.13724   43.22848  45.00000   0.00100     6    7    8    101
     8   5.53033   5.53033   1.05500   0.13724   43.22848  45.00000   0.00100     7    8    9    101
     9   5.60104   5.60104   1.14900   0.13724   43.22848  45.00000   0.00100     8    9   10    101
    10   5.67175   5.67175   1.24300   0.13724   43.22848  45.00000   0.00100     9   10   11    101
    11   5.74246   5.74246   1.33700   0.13724   43.22848  45.00000   0.00100    10   11   12    101
    12   5.81317   5.81317   1.43100   0.13724   43.22848  45.00000   0.00100    11   12   13    101
    13   5.88388   5.88388   1.52500   0.13724   43.22848  45.00000   0.00100    12   13   14    101
    14   5.95460   5.95460   1.61900   0.13724   43.22848  45.00000   0.00100    13   14   15    101
    15   6.02531   6.02531   1.71300   0.13724   43.22848  45.00000   0.00100    14   15   16    101
    16   6.09602   6.09602   1.80700   0.13724   43.22848  45.00000   0.00100    15   16   17    101
    17   6.16673   6.16673   1.90100   0.13724   43.22848  45.00000   0.00100    16   17   18    101
    18   6.23744   6.23744   1.99500   0.13724   43.22848  45.00000   0.00100    17   18   19    101
    19   6.30815   6.30815   2.08900   0.13724   43.22848  45.00000   0.00100    18   19   20    101
    20   6.37886   6.37886   2.18300   0.13724   43.22848  45.00000   0.00100    19   20   21    101
    21   6.44957   6.44957   2.27700   0.13724   43.22848  45.00000   0.00100    20   21   22    101
    22   6.52028   6.52028   2.37100   0.13724   43.22848  45.00000   0.00100    21   22   23    101
    23   6.59099   6.59099   2.46500   0.13724   43.22848  45.00000   0.00100    22   23   24    101
    24   6.66170   6.66170   2.55900   0.13724   43.22848  45.00000   0.00100    23   24   25    101
    25   6.73241   6.73241   2.65300   0.13724   43.22848  45.00000   0.00100    24   25   26    101
    26   6.75009   6.75009   2.82500   0.25495   78.69005-135.00000   0.00100    25   26   27    102
    27   6.71474   6.71474   3.07500   0.25495   78.69005-135.00000   0.00100    26   27   28    102
    28   6.67938   6.67938   3.32500   0.25495   78.69005-135.00000   0.00100    27   28   29    102
    29   6.64403   6.64403   3.57500   0.25495   78.69005-135.00000   0.00100    28   29   30    102
    30   6.60867   6.60867   3.82500   0.25495   78.69005-135.00000   0.00100    29   30   31    102
    31   6.57332   6.57332   4.07500   0.25495   78.69005-135.00000   0.00100    30   31   32    102
    32   6.53796   6.53796   4.32500   0.25495   78.69005-135.00000   0.00100    31   32   33    102
    33   6.50260   6.50260   4.57500   0.25495   78.69005-135.00000   0.00100    32   33   34    102
    34   6.46725   6.46725   4.82500   0.25495   78.69005-135.00000   0.00100    33   34   35    102
    35   6.43189   6.43189   5.07500   0.25495   78.69005-135.00000   0.00100    34   35   36    102
    36   6.39654   6.39654   5.32500   0.25495   78.69005-135.00000   0.00100    35   36   37    102
    37   6.36118   6.36118   5.57500   0.25495   78.69005-135.00000   0.00100    36   37   38    102
    38   6.32583   6.32583   5.82500   0.25495   78.69005-135.00000   0.00100    37   38   39    102
    39   6.29047   6.29047   6.07500   0.25495   78.69005-135.00000   0.00100    38   39   40    102
    40   6.25512   6.25512   6.32500   0.25495   78.69005-135.00000   0.00100    39   40   41    102
    41   6.21976   6.21976   6.57500   0.25495   78.69005-135.00000   0.00100    40   41   42    102
    42   6.18441   6.18441   6.82500   0.25495   78.69005-135.00000   0.00100    41   42   43    102
    43   6.14905   6.14905   7.07500   0.25495   78.69005-135.00000   0.00100    42   43   44    102
    44   6.11370   6.11370   7.32500   0.25495   78.69005-135.00000   0.00100    43   44   45    102
    45   6.07834   6.07834   7.57500   0.25495   78.69005-135.00000   0.00100    44   45   46    102
    46   6.04298   6.04298   7.82500   0.25495   78.69005-135.00000   0.00100    45   46   47    102
    47   6.00763   6.00763   8.07500   0.25495   78.69005-135.00000   0.00100    46   47   48    102
    48   5.97227   5.97227   8.32500   0.25495   78.69005-135.00000   0.00100    47   48   49    102
    49   5.93692   5.93692   8.57500   0.25495   78.69005-135.00000   0.00100    48   49   50    102
    50   5.90156   5.90156   8.82500   0.25495   78.69005-135.00000   0.00100    49   50   51    102
    51   5.86621   5.86621   9.07500   0.25495   78.69005-135.00000   0.00100    50   51   52    102
    52   5.83085   5.83085   9.32500   0.25495   78.69005-135.00000   0.00100    51   52   53    102
    53   5.79550   5.79550   9.57500   0.25495   78.69005-135.00000   0.00100    52   53   54    102
    54   5.76014   5.76014   9.82500   0.25495   78.69005-135.00000   0.00100    53   54   55    102
    55   5.72479   5.72479  10.07500   0.25495   78.69005-135.00000   0.00100    54   55   56    102
    56   5.68943   5.68943  10.32500   0.25495   78.69005-135.00000   0.00100    55   56   57    102
    57   5.65407   5.65407  10.57500   0.25495   78.69005-135.00000   0.00100    56   57   58    102
    58   5.61872   5.61872  10.82500   0.25495   78.69005-135.00000   0.00100    57   58   59    102
    59   5.58336   5.58336  11.07500   0.25495   78.69005-135.00000   0.00100    58   59   60    102
    60   5.54801   5.54801  11.32500   0.25495   78.69005-135.00000   0.00100    59   60   61    102
    61   5.51265   5.51265  11.57500   0.25495   78.69005-135.00000   0.00100    60   61   62    102
    62   5.47730   5.47730  11.82500   0.25495   78.69005-135.00000   0.00100    61   62   63    102
    63   5.44194   5.44194  12.07500   0.25495   78.69005-135.00000   0.00100    62   63   64    102
    64   5.40659   5.40659  12.32500   0.25495   78.69005-135.00000   0.00100    63   64   65    102
    65   5.37123   5.37123  12.57500   0.25495   78.69005-135.00000   0.00100    64   65   66    102
    66   5.33588   5.33588  12.82500   0.25495   78.69005-135.00000   0.00100    65   66   67    102
    67   5.30052   5.30052  13.07500   0.25495   78.69005-135.00000   0.00100    66   67   68    102
    68   5.26517   5.26517  13.32500   0.25495   78.69005-135.00000   0.00100    67   68   69    102
    69   5.22981   5.22981  13.57500   0.25495   78.69005-135.00000   0.00100    68   69   70    102
    70   5.19445   5.19445  13.82500   0.25495   78.69005-135.00000   0.00100    69   70   71    102
    71   5.15910   5.15910  14.07500   0.25495   78.69005-135.00000   0.00100    70   71   72    102
    72   5.12374   5.12374  14.32500   0.25495   78.69005-135.00000   0.00100    71   72   73    102
    73   5.08839   5.08839  14.57500   0.25495   78.69005-135.00000   0.00100    72   73   74    102
    74   5.05303   5.05303  14.82500   0.25495   78.69005-135.00000   0.00100    73   74   75    102
    75   5.01768   5.01768  15.07500   0.25495   78.69005-135.00000   0.00100    74   75 -150    102
    76   5.05000   5.00000   0.39700   0.13724   43.22853   0.00000   0.00100  -151   76   77    103
    77   5.15000   5.00000   0.49100   0.13724   43.22853   0.00000   0.00100    76   77   78    103
    78   5.25000   5.00000   0.58500   0.13724   43.22853   0.00000   0.00100    77   78   79    103
    79   5.35000   5.00000   0.67900   0.13724   43.22853   0.00000   0.00100    78   79   80    103
    80   5.45000   5.00000   0.77300   0.13724   43.22853   0.00000   0.00100    79   80   81    103
    81   5.55000   5.00000   0.86700   0.13724   43.22853   0.00000   0.00100    80   81   82    103
    82   5.65000   5.00000   0.96100   0.13724   43.22853   0.00000   0.00100    81   82   83    103
    83   5.75000   5.00000   1.05500   0.13724   43.22853   0.00000   0.00100    82   83   84    103
    84   5.85000   5.00000   1.14900   0.13724   43.22853   0.00000   0.00100    83   84   85    103
    85   5.95000   5.00000   1.24300   0.13724   43.22853   0.00000   0.00100    84   85   86    103
    86   6.05000   5.00000   1.33700   0.13724   43.22853   0.00000   0.00100    85   86   87    103
    87   6.15000   5.00000   1.43100   0.13724   43.22853   0.00000   0.00100    86   87   88    103
    88   6.25000   5.00000   1.52500   0.13724   43.22853   0.00000   0.00100    87   88   89    103
    89   6.35000   5.00000   1.61900   0.13724   43.22853   0.00000   0.00100    88   89   90    103
    90   6.45000   5.00000   1.71300   0.13724   43.22853   0.00000   0.00100    89   90   91    103
    91   6.55000   5.00000   1.80700   0.13724   43.22853   0.00000   0.00100    90   91   92    103
    92   6.65000   5.00000   1.90100   0.13724   43.22853   0.00000   0.00100    91   92   93    103
    93   6.75000   5.00000   1.99500   0.13724   43.22853   0.00000   0.00100    92   93   94    103
    94   6.85000   5.00000   2.08900   0.13724   43.22853   0.00000   0.00100    93   94   95    103
    95   6.95000   5.00000   2.18300   0.13724   43.22853   0.00000   0.00100    94   95   96    103
    96   7.05000   5.00000   2.27700   0.13724   43.22853   0.00000   0.00100    95   96   97    103
    97   7.15000   5.00000   2.37100   0.13724   43.22853   0.00000   0.00100    96   97   98    103
    98   7.25000   5.00000   2.46500   0.13724   43.22853   0.00000   0.00100    97   98   99    103
    99   7.35000   5.00000   2.55900   0.13724   43.22853   0.00000   0.00100    98   99  100    103
   100   7.45000   5.00000   2.65300   0.13724   43.22853   0.00000   0.00100    99  100  101    103
   101   7.47500   5.00000   2.82500   0.25495   78.69007 180.00000   0.00100   100  101  102    104
   102   7.42500   5.00000   3.07500   0.25495   78.69007 180.00000   0.00100   101  102  103    104
   103   7.37500   5.00000   3.32500   0.25495   78.69007 180.00000   0.00100   102  103  104    104
   104   7.32500   5.00000   3.57500   0.25495   78.69007 180.00000   0.00100   103  104  105    104
   105   7.27500   5.00000   3.82500   0.25495   78.69007 180.00000   0.00100   104  105  106    104
   106   7.22500   5.00000   4.07500   0.25495   78.69007 180.00000   0.00100   105  106  107    104
   107   7.17500   5.00000   4.32500   0.25495   78.69007 180.00000   0.00100   106  107  108    104
   108   7.12500   5.00000   4.57500   0.25495   78.69007 180.00000   0.00100   107  108  109    104
   109   7.07500   5.00000   4.82500   0.25495   78.69007 180.00000   0.00100   108  109  110    104
   110   7.02500   5.00000   5.07500   0.25495   78.69007 180.00000   0.00100   109  110  111    104
   111   6.97500   5.00000   5.32500   0.25495   78.69007 180.00000   0.00100   110  111  112    104
   112   6.92500   5.00000   5.57500   0.25495   78.69007 180.00000   0.00100   111  112  113    104
   113   6.87500   5.00000   5.82500   0.25495   78.69007 180.00000   0.00100   112  113  114    104
   114   6.82500   5.00000   6.07500   0.25495   78.69007 180.00000   0.00100   113  114  115    104
   115   6.77500   5.00000   6.32500   0.25495   78.69007 180.00000   0.00100   114  115  116    104
   116   6.72500   5.00000   6.57500   0.25495   78.69007 180.00000   0.00100   115  116  117    104
   117   6.67500   5.00000   6.82500   0.25495   78.69007 180.00000   0.00100   116  117  118    104
   118   6.62500   5.00000   7.07500   0.25495   78.69007 180.00000   0.00100   117  118  119    104
   119   6.57500   5.00000   7.32500   0.25495   78.69007 180.00000   0.00100   118  119  120    104
   120   6.52500   5.00000   7.57500   0.25495   78.69007 180.00000   0.00100   119  120  121    104
   121   6.47500   5.00000   7.82500   0.25495   78.69007 180.00000   0.00100   120  121  122    104
   122   6.42500   5.00000   8.07500   0.25495   78.69007 180.00000   0.00100   121  122  123    104
   123   6.37500   5.00000   8.32500   0.25495   78.69007 180.00000   0.00100   122  123  124    104
   124   6.32500   5.00000   8.57500   0.25495   78.69007 180.00000   0.00100   123  124  125    104
   125   6.27500   5.00000   8.82500   0.25495   78.69007 180.00000   0.00100   124  125  126    104
   126   6.22500   5.00000   9.07500   0.25495   78.69007 180.00000   0.00100   125  126  127    104
   127   6.17500   5.00000   9.32500   0.25495   78.69007 180.00000   0.00100   126  127  128    104
   128   6.12500   5.00000   9.57500   0.25495   78.69007 180.00000   0.00100   127  128  129    104
   129   6.07500   5.00000   9.82500   0.25495   78.69007 180.00000   0.00100   128  129  130    104
   130   6.02500   5.00000  10.07500   0.25495   78.69007 180.00000   0.00100   129  130  131    104
   131   5.97500   5.00000  10.32500   0.25495   78.69007 180.00000   0.00100   130  131  132    104
   132   5.92500   5.00000  10.57500   0.25495   78.69007 180.00000   0.00100   131  132  133    104
   133   5.87500   5.00000  10.82500   0.25495   78.69007 180.00000   0.00100   132  133  134    104
   134   5.82500   5.00000  11.07500   0.25495   78.69007 180.00000   0.00100   133  134  135    104
   135   5.77500   5.00000  11.32500   0.25495   78.69007 180.00000   0.00100   134  135  136    104
   136   5.72500   5.00000  11.57500   0.25495   78.69007 180.00000   0.00100   135  136  137    104
   137   5.67500   5.00000  11.82500   0.25495   78.69007 180.00000   0.00100   136  137  138    104
   138   5.62500   5.00000  12.07500   0.25495   78.69007 180.00000   0.00100   137  138  139    104
   139   5.57500   5.00000  12.32500   0.25495   78.69007 180.00000   0.00100   138  139  140    104
   140   5.52500   5.00000  12.57500   0.25495   78.69007 180.00000   0.00100   139  140  141    104
   141   5.47500   5.00000  12.82500   0.25495   78.69007 180.00000   0.00100   140  141  142    104
   142   5.42500   5.00000  13.07500   0.25495   78.69007 180.00000   0.00100   141  142  143    104
   143   5.37500   5.00000  13.32500   0.25495   78.69007 180.00000   0.00100   142  143  144    104
   144   5.32500   5.00000  13.57500   0.25495   78.69007 180.00000   0.00100   143  144  145    104
   145   5.27500   5.00000  13.82500   0.25495   78.69007 180.00000   0.00100   144  145  146    104
   146   5.22500   5.00000  14.07500   0.25495   78.69007 180.00000   0.00100   145  146  147    104
   147   5.17500   5.00000  14.32500   0.25495   78.69007 180.00000   0.00100   146  147  148    104
   148   5.12500   5.00000  14.57500   0.25495   78.69007 180.00000   0.00100   147  148  149    104
   149   5.07500   5.00000  14.82500   0.25495   78.69007 180.00000   0.00100   148  149  150    104
   150   5.02500   5.00000  15.07500   0.25495   78.69007 180.00000   0.00100   149  150 -225    104
   151   5.03536   4.96464   0.39700   0.13724   43.22848 -45.00000   0.00100  -226  151  152    105
   152   5.10607   4.89393   0.49100   0.13724   43.22848 -45.00000   0.00100   151  152  153    105
   153   5.17678   4.82322   0.58500   0.13724   43.22848 -45.00000   0.00100   152  153  154    105
   154   5.24749   4.75251   0.67900   0.13724   43.22848 -45.00000   0.00100   153  154  155    105
   155   5.31820   4.68180   0.77300   0.13724   43.22848 -45.00000   0.00100   154  155  156    105
   156   5.38891   4.61109   0.86700   0.13724   43.22848 -45.00000   0.00100   155  156  157    105
   157   5.45962   4.54038   0.96100   0.13724   43.22848 -45.00000   0.00100   156  157  158    105
   158   5.53033   4.46967   1.05500   0.13724   43.22848 -45.00000   0.00100   157  158  159    105
   159   5.60104   4.39896   1.14900   0.13724   43.22848 -45.00000   0.00100   158  159  160    105
   160   5.67175   4.32825   1.24300   0.13724   43.22848 -45.00000   0.00100   159  160  161    105
   161   5.74246   4.25754   1.33700   0.13724   43.22848 -45.00000   0.00100   160  161  162    105
   162   5.81317   4.18683   1.43100   0.13724   43.22848 -45.00000   0.00100   161  162  163    105
   163   5.88388   4.11612   1.52500   0.13724   43.22848 -45.00000   0.00100   162  163  164    105
   164   5.95460   4.04540   1.61900   0.13724   43.22848 -45.00000   0.00100   163  164  165    105
   165   6.02531   3.97469   1.71300   0.13724   43.22848 -45.00000   0.00100   164  165  166    105
   166   6.09602   3.90398   1.80700   0.13724   43.22848 -45.00000   0.00100   165  166  167    105
   167   6.16673   3.83327   1.90100   0.13724   43.22848 -45.00000   0.00100   166  167  168    105
   168   6.23744   3.76256   1.99500   0.13724   43.22848 -45.00000   0.00100   167  168  169    105
   169   6.30815   3.69185   2.08900   0.13724   43.22848 -45.00000   0.00100   168  169  170    105
   170   6.37886   3.62114   2.18300   0.13724   43.22848 -45.00000   0.00100   169  170  171    105
   171   6.44957   3.55043   2.27700   0.13724   43.22848 -45.00000   0.00100   170  171  172    105
   172   6.52028   3.47972   2.37100   0.13724   43.22848 -45.00000   0.00100   171  172  173    105
   173   6.59099   3.40901   2.46500   0.13724   43.22848 -45.00000   0.00100   172  173  174    105
   174   6.66170   3.33830   2.55900   0.13724   43.22848 -45.00000   0.00100   173  174  175    105
   175   6.73241   3.26759   2.65300   0.13724   43.22848 -45.00000   0.00100   174  175  176    105
   176   6.75009   3.24991   2.82500   0.25495   78.69005 135.00000   0.00100   175  176  177    106
   177   6.71474   3.28526   3.07500   0.25495   78.69005 135.00000   0.00100   176  177  178    106
   178   6.67938   3.32062   3.32500   0.25495   78.69005 135.00000   0.00100   177  178  179    106
   179   6.64403   3.35597   3.57500   0.25495   78.69005 135.00000   0.00100   178  179  180    106
   180   6.60867   3.39133   3.82500   0.25495   78.69005 135.00000   0.00100   179  180  181    106
   181   6.57332   3.42668   4.07500   0.25495   78.69005 135.00000   0.00100   180  181  182    106
   182   6.53796   3.46204   4.32500   0.25495   78.69005 135.00000   0.00100   181  182  183    106
   183   6.50260   3.49740   4.57500   0.25495   78.69005 135.00000   0.00100   182  183  184    106
   184   6.46725   3.53275   4.82500   0.25495   78.69005 135.00000   0.00100   183  184  185    106
   185   6.43189   3.56811   5.07500   0.25495   78.69005 135.00000   0.00100   184  185  186    106
   186   6.39654   3.60346   5.32500   0.25495   78.69005 135.00000   0.00100   185  186  187    106
   187   6.36118   3.63882   5.57500   0.25495   78.69005 135.00000   0.00100   186  187  188    106
   188   6.32583   3.67417   5.82500   0.25495   78.69005 135.00000   0.00100   187  188  189    106
   189   6.29047   3.70953   6.07500   0.25495   78.69005 135.00000   0.00100   188  189  190    106
   190   6.25512   3.74488   6.32500   0.25495   78.69005 135.00000   0.00100   189  190  191    106
   191   6.21976   3.78024   6.57500   0.25495   78.69005 135.00000   0.00100   190  191  192    106
   192   6.18441   3.81559   6.82500   0.25495   78.69005 135.00000   0.00100   191  192  193    106
   193   6.14905   3.85095   7.07500   0.25495   78.69005 135.00000   0.00100   192  193  194    106
   194   6.11370   3.88630   7.32500   0.25495   78.69005 135.00000   0.00100   193  194  195    106
   195   6.07834   3.92166   7.57500   0.25495   78.69005 135.00000   0.00100   194  195  196    106
   196   6.04298   3.95702   7.82500   0.25495   78.69005 135.00000   0.00100   195  196  197    106
   197   6.00763   3.99237   8.07500   0.25495   78.69005 135.00000   0.00100   196  197  198    106
   198   5.97227   4.02773   8.32500   0.25495   78.69005 135.00000   0.00100   197  198  199    106
   199   5.93692   4.06308   8.57500   0.25495   78.69005 135.00000   0.00100   198  199  200    106
   200   5.90156   4.09844   8.82500   0.25495   78.69005 135.00000   0.00100   199  200  201    106
   201   5.86621   4.13379   9.07500   0.25495   78.69005 135.00000   0.00100   200  201  202    106
   202   5.83085   4.16915   9.32500   0.25495   78.69005 135.00000   0.00100   201  202  203    106
   203   5.79550   4.20450   9.57500   0.25495   78.69005 135.00000   0.00100   202  203  204    106
   204   5.76014   4.23986   9.82500   0.25495   78.69005 135.00000   0.00100   203  204  205    106
   205   5.72479   4.27521  10.07500   0.25495   78.69005 135.00000   0.00100   204  205  206    106
   206   5.68943   4.31057  10.32500   0.25495   78.69005 135.00000   0.00100   205  206  207    106
   207   5.65407   4.34593  10.57500   0.25495   78.69005 135.00000   0.00100   206  207  208    106
   208   5.61872   4.38128  10.82500   0.25495   78.69005 135.00000   0.00100   207  208  209    106
   209   5.58336   4.41664  11.07500   0.25495   78.69005 135.00000   0.00100   208  209  210    106
   210   5.54801   4.45199  11.32500   0.25495   78.69005 135.00000   0.00100   209  210  211    106
   211   5.51265   4.48735  11.57500   0.25495   78.69005 135.00000   0.00100   210  211  212    106
   212   5.47730   4.52270  11.82500   0.25495   78.69005 135.00000   0.00100   211  212  213    106
   213   5.44194   4.55806  12.07500   0.25495   78.69005 135.00000   0.00100   212  213  214    106
   214   5.40659   4.59341  12.32500   0.25495   78.69005 135.00000   0.00100   213  214  215    106
   215   5.37123   4.62877  12.57500   0.25495   78.69005 135.00000   0.00100   214  215  216    106
   216   5.33588   4.66412  12.82500   0.25495   78.69005 135.00000   0.00100   215  216  217    106
   217   5.30052   4.69948  13.07500   0.25495   78.69005 135.00000   0.00100   216  217  218    106
   218   5.26517   4.73483  13.32500   0.25495   78.69005 135.00000   0.00100   217  218  219    106
   219   5.22981   4.77019  13.57500   0.25495   78.69005 135.00000   0.00100   218  219  220    106
   220   5.19445   4.80555  13.82500   0.25495   78.69005 135.00000   0.00100   219  220  221    106
   221   5.15910   4.84090  14.07500   0.25495   78.69005 135.00000   0.00100   220  221  222    106
   222   5.12374   4.87626  14.32500   0.25495   78.69005 135.00000   0.00100   221  222  223    106
   223   5.08839   4.91161  14.57500   0.25495   78.69005 135.00000   0.00100   222  223  224    106
   224   5.05303   4.94697  14.82500   0.25495   78.69005 135.00000   0.00100   223  224  225    106
   225   5.01768   4.98232  15.07500   0.25495   78.69005 135.00000   0.00100   224  225 -300    106
   226   5.00000   4.95000   0.39700   0.13724   43.22853 -90.00000   0.00100  -301  226  227    107
   227   5.00000   4.85000   0.49100   0.13724   43.22853 -90.00000   0.00100   226  227  228    107
   228   5.00000   4.75000   0.58500   0.13724   43.22853 -90.00000   0.00100   227  228  229    107
   229   5.00000   4.65000   0.67900   0.13724   43.22853 -90.00000   0.00100   228  229  230    107
   230   5.00000   4.55000   0.77300   0.13724   43.22853 -90.00000   0.00100   229  230  231    107
   231   5.00000   4.45000   0.86700   0.13724   43.22853 -90.00000   0.00100   230  231  232    107
   232   5.00000   4.35000   0.96100   0.13724   43.22853 -90.00000   0.00100   231  232  233    107
   233   5.00000   4.25000   1.05500   0.13724   43.22853 -90.00000   0.00100   232  233  234    107
   234   5.00000   4.15000   1.14900   0.13724   43.22853 -90.00000   0.00100   233  234  235    107
   235   5.00000   4.05000   1.24300   0.13724   43.22853 -90.00000   0.00100   234  235  236    107
   236   5.00000   3.95000   1.33700   0.13724   43.22853 -90.00000   0.00100   235  236  237    107
   237   5.00000   3.85000   1.43100   0.13724   43.22853 -90.00000   0.00100   236  237  238    107
   238   5.00000   3.75000   1.52500   0.13724   43.22853 -90.00000   0.00100   237  238  239    107
   239   5.00000   3.65000   1.61900   0.13724   43.22853 -90.00000   0.00100   238  239  240    107
   240   5.00000   3.55000   1.71300   0.13724   43.22853 -90.00000   0.00100   239  240  241    107
   241   5.00000   3.45000   1.80700   0.13724   43.22853 -90.00000   0.00100   240  241  242    107
   242   5.00000   3.35000   1.90100   0.13724   43.22853 -90.00000   0.00100   241  242  243    107
   243   5.00000   3.25000   1.99500   0.13724   43.22853 -90.00000   0.00100   242  243  244    107
   244   5.00000   3.15000   2.08900   0.13724   43.22853 -90.00000   0.00100   243  244  245    107
   245   5.00000   3.05000   2.18300   0.13724   43.22853 -90.00000   0.00100   244  245  246    107
   246   5.00000   2.95000   2.27700   0.13724   43.22853 -90.00000   0.00100   245  246  247    107
   247   5.00000   2.85000   2.37100   0.13724   43.22853 -90.00000   0.00100   246  247  248    107
   248   5.00000   2.75000   2.46500   0.13724   43.22853 -90.00000   0.00100   247  248  249    107
   249   5.00000   2.65000   2.55900   0.13724   43.22853 -90.00000   0.00100   248  249  250    107
   250   5.00000   2.55000   2.65300   0.13724   43.22853 -90.00000   0.00100   249  250  251    107
   251   5.00000   2.52500   2.82500   0.25495   78.69007  90.00000   0.00100   250  251  252    108
   252   5.00000   2.57500   3.07500   0.25495   78.69007  90.00000   0.00100   251  252  253    108
   253   5.00000   2.62500   3.32500   0.25495   78.69007  90.00000   0.00100   252  253  254    108
   254   5.00000   2.67500   3.57500   0.25495   78.69007  90.00000   0.00100   253  254  255    108
   255   5.00000   2.72500   3.82500   0.25495   78.69007  90.00000   0.00100   254  255  256    108
   256   5.00000   2.77500   4.07500   0.25495   78.69007  90.00000   0.00100   255  256  257    108
   257   5.00000   2.82500   4.32500   0.25495   78.69007  90.00000   0.00100   256  257  258    108
   258   5.00000   2.87500   4.57500   0.25495   78.69007  90.00000   0.00100   257  258  259    108
   259   5.00000   2.92500   4.82500   0.25495   78.69007  90.00000   0.00100   258  259  260    108
   260   5.00000   2.97500   5.07500   0.25495   78.69007  90.00000   0.00100   259  260  261    108
   261   5.00000   3.02500   5.32500   0.25495   78.69007  90.00000   0.00100   260  261  262    108
   262   5.00000   3.07500   5.57500   0.25495   78.69007  90.00000   0.00100   261  262  263    108
   263   5.00000   3.12500   5.82500   0.25495   78.69007  90.00000   0.00100   262  263  264    108
   264   5.00000   3.17500   6.07500   0.25495   78.69007  90.00000   0.00100   263  264  265    108
   265   5.00000   3.22500   6.32500   0.25495   78.69007  90.00000   0.00100   264  265  266    108
   266   5.00000   3.27500   6.57500   0.25495   78.69007  90.00000   0.00100   265  266  267    108
   267   5.00000   3.32500   6.82500   0.25495   78.69007  90.00000   0.00100   266  267  268    108
   268   5.00000   3.37500   7.07500   0.25495   78.69007  90.00000   0.00100   267  268  269    108
   269   5.00000   3.42500   7.32500   0.25495   78.69007  90.00000   0.00100   268  269  270    108
   270   5.00000   3.47500   7.57500   0.25495   78.69007  90.00000   0.00100   269  270  271    108
   271   5.00000   3.52500   7.82500   0.25495   78.69007  90.00000   0.00100   270  271  272    108
   272   5.00000   3.57500   8.07500   0.25495   78.69007  90.00000   0.00100   271  272  273    108
   273   5.00000   3.62500   8.32500   0.25495   78.69007  90.00000   0.00100   272  273  274    108
   274   5.00000   3.67500   8.57500   0.25495   78.69007  90.00000   0.00100   273  274  275    108
   275   5.00000   3.72500   8.82500   0.25495   78.69007  90.00000   0.00100   274  275  276    108
   276   5.00000   3.77500   9.07500   0.25495   78.69007  90.00000   0.00100   275  276  277    108
   277   5.00000   3.82500   9.32500   0.25495   78.69007  90.00000   0.00100   276  277  278    108
   278   5.00000   3.87500   9.57500   0.25495   78.69007  90.00000   0.00100   277  278  279    108
   279   5.00000   3.92500   9.82500   0.25495   78.69007  90.00000   0.00100   278  279  280    108
   280   5.00000   3.97500  10.07500   0.25495   78.69007  90.00000   0.00100   279  280  281    108
   281   5.00000   4.02500  10.32500   0.25495   78.69007  90.00000   0.00100   280  281  282    108
   282   5.00000   4.07500  10.57500   0.25495   78.69007  90.00000   0.00100   281  282  283    108
   283   5.00000   4.12500  10.82500   0.25495   78.69007  90.00000   0.00100   282  283  284    108
   284   5.00000   4.17500  11.07500   0.25495   78.69007  90.00000   0.00100   283  284  285    108
   285   5.00000   4.22500  11.32500   0.25495   78.69007  90.00000   0.00100   284  285  286    108
   286   5.00000   4.27500  11.57500   0.25495   78.69007  90.00000   0.00100   285  286  287    108
   287   5.00000   4.32500  11.82500   0.25495   78.69007  90.00000   0.00100   286  287  288    108
   288   5.00000   4.37500  12.07500   0.25495   78.69007  90.00000   0.00100   287  288  289    108
   289   5.00000   4.42500  12.32500   0.25495   78.69007  90.00000   0.00100   288  289  290    108
   290   5.00000   4.47500  12.57500   0.25495   78.69007  90.00000   0.00100   289  290  291    108
   291   5.00000   4.52500  12.82500   0.25495   78.69007  90.00000   0.00100   290  291  292    108
   292   5.00000   4.57500  13.07500   0.25495   78.69007  90.00000   0.00100   291  292  293    108
   293   5.00000   4.62500  13.32500   0.25495   78.69007  90.00000   0.00100   292  293  294    108
   294   5.00000   4.67500  13.57500   0.25495   78.69007  90.00000   0.00100   293  294  295    108
   295   5.00000   4.72500  13.82500   0.25495   78.69007  90.00000   0.00100   294  295  296    108
   296   5.00000   4.77500  14.07500   0.25495   78.69007  90.00000   0.00100   295  296  297    108
   297   5.00000   4.82500  14.32500   0.25495   78.69007  90.00000   0.00100   296  297  298    108
   298   5.00000   4.87500  14.57500   0.25495   78.69007  90.00000   0.00100   297  298  299    108
   299   5.00000   4.92500  14.82500   0.25495   78.69007  90.00000   0.00100   298  299  300    108
   300   5.00000   4.97500  15.07500   0.25495   78.69007  90.00000   0.00100   299  300 -375    108
   301   4.96464   4.96464   0.39700   0.13724   43.22848-135.00000   0.00100  -376  301  302    109
   302   4.89393   4.89393   0.49100   0.13724   43.22848-135.00000   0.00100   301  302  303    109
   303   4.82322   4.82322   0.58500   0.13724   43.22848-135.00000   0.00100   302  303  304    109
   304   4.75251   4.75251   0.67900   0.13724   43.22848-135.00000   0.00100   303  304  305    109
   305   4.68180   4.68180   0.77300   0.13724   43.22848-135.00000   0.00100   304  305  306    109
   306   4.61109   4.61109   0.86700   0.13724   43.22848-135.00000   0.00100   305  306  307    109
   307   4.54038   4.54038   0.96100   0.13724   43.22848-135.00000   0.00100   306  307  308    109
   308   4.46967   4.46967   1.05500   0.13724   43.22848-135.00000   0.00100   307  308  309    109
   309   4.39896   4.39896   1.14900   0.13724   43.22848-135.00000   0.00100   308  309  310    109
   310   4.32825   4.32825   1.24300   0.13724   43.22848-135.00000   0.00100   309  310  311    109
   311   4.25754   4.25754   1.33700   0.13724   43.22848-135.00000   0.00100   310  311  312    109
   312   4.18683   4.18683   1.43100   0.13724   43.22848-135.00000   0.00100   311  312  313    109
   313   4.11612   4.11612   1.52500   0.13724   43.22848-135.00000   0.00100   312  313  314    109
   314   4.04540   4.04540   1.61900   0.13724   43.22848-135.00000   0.00100   313  314  315    109
   315   3.97469   3.97469   1.71300   0.13724   43.22848-135.00000   0.00100   314  315  316    109
   316   3.90398   3.90398   1.80700   0.13724   43.22848-135.00000   0.00100   315  316  317    109
   317   3.83327   3.83327   1.90100   0.13724   43.22848-135.00000   0.00100   316  317  318    109
   318   3.76256   3.76256   1.99500   0.13724   43.22848-135.00000   0.00100   317  318  319    109
   319   3.69185   3.69185   2.08900   0.13724   43.22848-135.00000   0.00100   318  319  320    109
   320   3.62114   3.62114   2.18300   0.13724   43.22848-135.00000   0.00100   319  320  321    109
   321   3.55043   3.55043   2.27700   0.13724   43.22848-135.00000   0.00100   320  321  322    109
   322   3.47972   3.47972   2.37100   0.13724   43.22848-135.00000   0.00100   321  322  323    109
   323   3.40901   3.40901   2.46500   0.13724   43.22848-135.00000   0.00100   322  323  324    109
   324   3.33830   3.33830   2.55900   0.13724   43.22848-135.00000   0.00100   323  324  325    109
   325   3.26759   3.26759   2.65300   0.13724   43.22848-135.00000   0.00100   324  325  326    109
   326   3.24991   3.24991   2.82500   0.25495   78.69005  45.00000   0.00100   325  326  327    110
   327   3.28526   3.28526   3.07500   0.25495   78.69005  45.00000   0.00100   326  327  328    110
   328   3.32062   3.32062   3.32500   0.25495   78.69005  45.00000   0.00100   327  328  329    110
   329   3.35597   3.35597   3.57500   0.25495   78.69005  45.00000   0.00100   328  329  330    110
   330   3.39133   3.39133   3.82500   0.25495   78.69005  45.00000   0.00100   329  330  331    110
   331   3.42668   3.42668   4.07500   0.25495   78.69005  45.00000   0.00100   330  331  332    110
   332   3.46204   3.46204   4.32500   0.25495   78.69005  45.00000   0.00100   331  332  333    110
   333   3.49740   3.49740   4.57500   0.25495   78.69005  45.00000   0.00100   332  333  334    110
   334   3.53275   3.53275   4.82500   0.25495   78.69005  45.00000   0.00100   333  334  335    110
   335   3.56811   3.56811   5.07500   0.25495   78.69005  45.00000   0.00100   334  335  336    110
   336   3.60346   3.60346   5.32500   0.25495   78.69005  45.00000   0.00100   335  336  337    110
   337   3.63882   3.63882   5.57500   0.25495   78.69005  45.00000   0.00100   336  337  338    110
   338   3.67417   3.67417   5.82500   0.25495   78.69005  45.00000   0.00100   337  338  339    110
   339   3.70953   3.70953   6.07500   0.25495   78.69005  45.00000   0.00100   338  339  340    110
   340   3.74488   3.74488   6.32500   0.25495   78.69005  45.00000   0.00100   339  340  341    110
   341   3.78024   3.78024   6.57500   0.25495   78.69005  45.00000   0.00100   340  341  342    110
   342   3.81559   3.81559   6.82500   0.25495   78.69005  45.00000   0.00100   341  342  343    110
   343   3.85095   3.85095   7.07500   0.25495   78.69005  45.00000   0.00100   342  343  344    110
   344   3.88630   3.88630   7.32500   0.25495   78.69005  45.00000   0.00100   343  344  345    110
   345   3.92166   3.92166   7.57500   0.25495   78.69005  45.00000   0.00100   344  345  346    110
   346   3.95702   3.95702   7.82500   0.25495   78.69005  45.00000   0.00100   345  346  347    110
   347   3.99237   3.99237   8.07500   0.25495   78.69005  45.00000   0.00100   346  347  348    110
   348   4.02773   4.02773   8.32500   0.25495   78.69005  45.00000   0.00100   347  348  349    110
   349   4.06308   4.06308   8.57500   0.25495   78.69005  45.00000   0.00100   348  349  350    110
   350   4.09844   4.09844   8.82500   0.25495   78.69005  45.00000   0.00100   349  350  351    110
   351   4.13379   4.13379   9.07500   0.25495   78.69005  45.00000   0.00100   350  351  352    110
   352   4.16915   4.16915   9.32500   0.25495   78.69005  45.00000   0.00100   351  352  353    110
   353   4.20450   4.20450   9.57500   0.25495   78.69005  45.00000   0.00100   352  353  354    110
   354   4.23986   4.23986   9.82500   0.25495   78.69005  45.00000   0.00100   353  354  355    110
   355   4.27521   4.27521  10.07500   0.25495   78.69005  45.00000   0.00100   354  355  356    110
   356   4.31057   4.31057  10.32500   0.25495   78.69005  45.00000   0.00100   355  356  357    110
   357   4.34593   4.34593  10.57500   0.25495   78.69005  45.00000   0.00100   356  357  358    110
   358   4.38128   4.38128  10.82500   0.25495   78.69005  45.00000   0.00100   357  358  359    110
   359   4.41664   4.41664  11.07500   0.25495   78.69005  45.00000   0.00100   358  359  360    110
   360   4.45199   4.45199  11.32500   0.25495   78.69005  45.00000   0.00100   359  360  361    110
   361   4.48735   4.48735  11.57500   0.25495   78.69005  45.00000   0.00100   360  361  362    110
   362   4.52270   4.52270  11.82500   0.25495   78.69005  45.00000   0.00100   361  362  363    110
   363   4.55806   4.55806  12.07500   0.25495   78.69005  45.00000   0.00100   362  363  364    110
   364   4.59341   4.59341  12.32500   0.25495   78.69005  45.00000   0.00100   363  364  365    110
   365   4.62877   4.62877  12.57500   0.25495   78.69005  45.00000   0.00100   364  365  366    110
   366   4.66412   4.66412  12.82500   0.25495   78.69005  45.00000   0.00100   365  366  367    110
   367   4.69948   4.69948  13.07500   0.25495   78.69005  45.00000   0.00100   366  367  368    110
   368   4.73483   4.73483  13.32500   0.25495   78.69005  45.00000   0.00100   367  368  369    110
   369   4.77019   4.77019  13.57500   0.25495   78.69005  45.00000   0.00100   368  369  370    110
   370   4.80555   4.80555  13.82500   0.25495   78.69005  45.00000   0.00100   369  370  371    110
   371   4.84090   4.84090  14.07500   0.25495   78.69005  45.00000   0.00100   370  371  372    110
   372   4.87626   4.87626  14.32500   0.25495   78.69005  45.00000   0.00100   371  372  373    110
   373   4.91161   4.91161  14.57500   0.25495   78.69005  45.00000   0.00100   372  373  374    110
   374   4.94697   4.94697  14.82500   0.25495   78.69005  45.00000   0.00100   373  374  375    110
   375   4.98232   4.98232  15.07500   0.25495   78.69005  45.00000   0.00100   374  375 -450    110
   376   4.95000   5.00000   0.39700   0.13724   43.22853 180.00000   0.00100  -451  376  377    111
   377   4.85000   5.00000   0.49100   0.13724   43.22853 180.00000   0.00100   376  377  378    111
   378   4.75000   5.00000   0.58500   0.13724   43.22853 180.00000   0.00100   377  378  379    111
   379   4.65000   5.00000   0.67900   0.13724   43.22853 180.00000   0.00100   378  379  380    111
   380   4.55000   5.00000   0.77300   0.13724   43.22853 180.00000   0.00100   379  380  381    111
   381   4.45000   5.00000   0.86700   0.13724   43.22853 180.00000   0.00100   380  381  382    111
   382   4.35000   5.00000   0.96100   0.13724   43.22853 180.00000   0.00100   381  382  383    111
   383   4.25000   5.00000   1.05500   0.13724   43.22853 180.00000   0.00100   382  383  384    111
   384   4.15000   5.00000   1.14900   0.13724   43.22853 180.00000   0.00100   383  384  385    111
   385   4.05000   5.00000   1.24300   0.13724   43.22853 180.00000   0.00100   384  385  386    111
   386   3.95000   5.00000   1.33700   0.13724   43.22853 180.00000   0.00100   385  386  387    111
   387   3.85000   5.00000   1.43100   0.13724   43.22853 180.00000   0.00100   386  387  388    111
   388   3.75000   5.00000   1.52500   0.13724   43.22853 180.00000   0.00100   387  388  389    111
   389   3.65000   5.00000   1.61900   0.13724   43.22853 180.00000   0.00100   388  389  390    111
   390   3.55000   5.00000   1.71300   0.13724   43.22853 180.00000   0.00100   389  390  391    111
   391   3.45000   5.00000   1.80700   0.13724   43.22853 180.00000   0.00100   390  391  392    111
   392   3.35000   5.00000   1.90100   0.13724   43.22853 180.00000   0.00100   391  392  393    111
   393   3.25000   5.00000   1.99500   0.13724   43.22853 180.00000   0.00100   392  393  394    111
   394   3.15000   5.00000   2.08900   0.13724   43.22853 180.00000   0.00100   393  394  395    111
   395   3.05000   5.00000   2.18300   0.13724   43.22853 180.00000   0.00100   394  395  396    111
   396   2.95000   5.00000   2.27700   0.13724   43.22853 180.00000   0.00100   395  396  397    111
   397   2.85000   5.00000   2.37100   0.13724   43.22853 180.00000   0.00100   396  397  398    111
   398   2.75000   5.00000   2.46500   0.13724   43.22853 180.00000   0.00100   397  398  399    111
   399   2.65000   5.00000   2.55900   0.13724   43.22853 180.00000   0.00100   398  399  400    111
   400   2.55000   5.00000   2.65300   0.13724   43.22853 180.00000   0.00100   399  400  401    111
   401   2.52500   5.00000   2.82500   0.25495   78.69007   0.00000   0.00100   400  401  402    112
   402   2.57500   5.00000   3.07500   0.25495   78.69007   0.00000   0.00100   401  402  403    112
   403   2.62500   5.00000   3.32500   0.25495   78.69007   0.00000   0.00100   402  403  404    112
   404   2.67500   5.00000   3.57500   0.25495   78.69007   0.00000   0.00100   403  404  405    112
   405   2.72500   5.00000   3.82500   0.25495   78.69007   0.00000   0.00100   404  405  406    112
   406   2.77500   5.00000   4.07500   0.25495   78.69007   0.00000   0.00100   405  406  407    112
   407   2.82500   5.00000   4.32500   0.25495   78.69007   0.00000   0.00100   406  407  408    112
   408   2.87500   5.00000   4.57500   0.25495   78.69007   0.00000   0.00100   407  408  409    112
   409   2.92500   5.00000   4.82500   0.25495   78.69007   0.00000   0.00100   408  409  410    112
   410   2.97500   5.00000   5.07500   0.25495   78.69007   0.00000   0.00100   409  410  411    112
   411   3.02500   5.00000   5.32500   0.25495   78.69007   0.00000   0.00100   410  411  412    112
   412   3.07500   5.00000   5.57500   0.25495   78.69007   0.00000   0.00100   411  412  413    112
   413   3.12500   5.00000   5.82500   0.25495   78.69007   0.00000   0.00100   412  413  414    112
   414   3.17500   5.00000   6.07500   0.25495   78.69007   0.00000   0.00100   413  414  415    112
   415   3.22500   5.00000   6.32500   0.25495   78.69007   0.00000   0.00100   414  415  416    112
   416   3.27500   5.00000   6.57500   0.25495   78.69007   0.00000   0.00100   415  416  417    112
   417   3.32500   5.00000   6.82500   0.25495   78.69007   0.00000   0.00100   416  417  418    112
   418   3.37500   5.00000   7.07500   0.25495   78.69007   0.00000   0.00100   417  418  419    112
   419   3.42500   5.00000   7.32500   0.25495   78.69007   0.00000   0.00100   418  419  420    112
   420   3.47500   5.00000   7.57500   0.25495   78.69007   0.00000   0.00100   419  420  421    112
   421   3.52500   5.00000   7.82500   0.25495   78.69007   0.00000   0.00100   420  421  422    112
   422   3.57500   5.00000   8.07500   0.25495   78.69007   0.00000   0.00100   421  422  423    112
   423   3.62500   5.00000   8.32500   0.25495   78.69007   0.00000   0.00100   422  423  424    112
   424   3.67500   5.00000   8.57500   0.25495   78.69007   0.00000   0.00100   423  424  425    112
   425   3.72500   5.00000   8.82500   0.25495   78.69007   0.00000   0.00100   424  425  426    112
   426   3.77500   5.00000   9.07500   0.25495   78.69007   0.00000   0.00100   425  426  427    112
   427   3.82500   5.00000   9.32500   0.25495   78.69007   0.00000   0.00100   426  427  428    112
   428   3.87500   5.00000   9.57500   0.25495   78.69007   0.00000   0.00100   427  428  429    112
   429   3.92500   5.00000   9.82500   0.25495   78.69007   0.00000   0.00100   428  429  430    112
   430   3.97500   5.00000  10.07500   0.25495   78.69007   0.00000   0.00100   429  430  431    112
   431   4.02500   5.00000  10.32500   0.25495   78.69007   0.00000   0.00100   430  431  432    112
   432   4.07500   5.00000  10.57500   0.25495   78.69007   0.00000   0.00100   431  432  433    112
   433   4.12500   5.00000  10.82500   0.25495   78.69007   0.00000   0.00100   432  433  434    112
   434   4.17500   5.00000  11.07500   0.25495   78.69007   0.00000   0.00100   433  434  435    112
   435   4.22500   5.00000  11.32500   0.25495   78.69007   0.00000   0.00100   434  435  436    112
   436   4.27500   5.00000  11.57500   0.25495   78.69007   0.00000   0.00100   435  436  437    112
   437   4.32500   5.00000  11.82500   0.25495   78.69007   0.00000   0.00100   436  437  438    112
   438   4.37500   5.00000  12.07500   0.25495   78.69007   0.00000   0.00100   437  438  439    112
   439   4.42500   5.00000  12.32500   0.25495   78.69007   0.00000   0.00100   438  439  440    112
   440   4.47500   5.00000  12.57500   0.25495   78.69007   0.00000   0.00100   439  440  441    112
   441   4.52500   5.00000  12.82500   0.25495   78.69007   0.00000   0.00100   440  441  442    112
   442   4.57500   5.00000  13.07500   0.25495   78.69007   0.00000   0.00100   441  442  443    112
   443   4.62500   5.00000  13.32500   0.25495   78.69007   0.00000   0.00100   442  443  444    112
   444   4.67500   5.00000  13.57500   0.25495   78.69007   0.00000   0.00100   443  444  445    112
   445   4.72500   5.00000  13.82500   0.25495   78.69007   0.00000   0.00100   444  445  446    112
   446   4.77500   5.00000  14.07500   0.25495   78.69007   0.00000   0.00100   445  446  447    112
   447   4.82500   5.00000  14.32500   0.25495   78.69007   0.00000   0.00100   446  447  448    112
   448   4.87500   5.00000  14.57500   0.25495   78.69007   0.00000   0.00100   447  448  449    112
   449   4.92500   5.00000  14.82500   0.25495   78.69007   0.00000   0.00100   448  449  450    112
   450   4.97500   5.00000  15.07500   0.25495   78.69007   0.00000   0.00100   449  450 -525    112
   451   4.96464   5.03536   0.39700   0.13724   43.22848 135.00000   0.00100  -526  451  452    113
   452   4.89393   5.10607   0.49100   0.13724   43.22848 135.00000   0.00100   451  452  453    113
   453   4.82322   5.17678   0.58500   0.13724   43.22848 135.00000   0.00100   452  453  454    113
   454   4.75251   5.24749   0.67900   0.13724   43.22848 135.00000   0.00100   453  454  455    113
   455   4.68180   5.31820   0.77300   0.13724   43.22848 135.00000   0.00100   454  455  456    113
   456   4.61109   5.38891   0.86700   0.13724   43.22848 135.00000   0.00100   455  456  457    113
   457   4.54038   5.45962   0.96100   0.13724   43.22848 135.00000   0.00100   456  457  458    113
   458   4.46967   5.53033   1.05500   0.13724   43.22848 135.00000   0.00100   457  458  459    113
   459   4.39896   5.60104   1.14900   0.13724   43.22848 135.00000   0.00100   458  459  460    113
   460   4.32825   5.67175   1.24300   0.13724   43.22848 135.00000   0.00100   459  460  461    113
   461   4.25754   5.74246   1.33700   0.13724   43.22848 135.00000   0.00100   460  461  462    113
   462   4.18683   5.81317   1.43100   0.13724   43.22848 135.00000   0.00100   461  462  463    113
   463   4.11612   5.88388   1.52500   0.13724   43.22848 135.00000   0.00100   462  463  464    113
   464   4.04540   5.95460   1.61900   0.13724   43.22848 135.00000   0.00100   463  464  465    113
   465   3.97469   6.02531   1.71300   0.13724   43.22848 135.00000   0.00100   464  465  466    113
   466   3.90398   6.09602   1.80700   0.13724   43.22848 135.00000   0.00100   465  466  467    113
   467   3.83327   6.16673   1.90100   0.13724   43.22848 135.00000   0.00100   466  467  468    113
   468   3.76256   6.23744   1.99500   0.13724   43.22848 135.00000   0.00100   467  468  469    113
   469   3.69185   6.30815   2.08900   0.13724   43.22848 135.00000   0.00100   468  469  470    113
   470   3.62114   6.37886   2.18300   0.13724   43.22848 135.00000   0.00100   469  470  471    113
   471   3.55043   6.44957   2.27700   0.13724   43.22848 135.00000   0.00100   470  471  472    113
   472   3.47972   6.52028   2.37100   0.13724   43.22848 135.00000   0.00100   471  472  473    113
   473   3.40901   6.59099   2.46500   0.13724   43.22848 135.00000   0.00100   472  473  474    113
   474   3.33830   6.66170   2.55900   0.13724   43.22848 135.00000   0.00100   473  474  475    113
   475   3.26759   6.73241   2.65300   0.13724   43.22848 135.00000   0.00100   474  475  476    113
   476   3.24991   6.75009   2.82500   0.25495   78.69005 -45.00000   0.00100   475  476  477    114
   477   3.28526   6.71474   3.07500   0.25495   78.69005 -45.00000   0.00100   476  477  478    114
   478   3.32062   6.67938   3.32500   0.25495   78.69005 -45.00000   0.00100   477  478  479    114
   479   3.35597   6.64403   3.57500   0.25495   78.69005 -45.00000   0.00100   478  479  480    114
   480   3.39133   6.60867   3.82500   0.25495   78.69005 -45.00000   0.00100   479  480  481    114
   481   3.42668   6.57332   4.07500   0.25495   78.69005 -45.00000   0.00100   480  481  482    114
   482   3.46204   6.53796   4.32500   0.25495   78.69005 -45.00000   0.00100   481  482  483    114
   483   3.49740   6.50260   4.57500   0.25495   78.69005 -45.00000   0.00100   482  483  484    114
   484   3.53275   6.46725   4.82500   0.25495   78.69005 -45.00000   0.00100   483  484  485    114
   485   3.56811   6.43189   5.07500   0.25495   78.69005 -45.00000   0.00100   484  485  486    114
   486   3.60346   6.39654   5.32500   0.25495   78.69005 -45.00000   0.00100   485  486  487    114
   487   3.63882   6.36118   5.57500   0.25495   78.69005 -45.00000   0.00100   486  487  488    114
   488   3.67417   6.32583   5.82500   0.25495   78.69005 -45.00000   0.00100   487  488  489    114
   489   3.70953   6.29047   6.07500   0.25495   78.69005 -45.00000   0.00100   488  489  490    114
   490   3.74488   6.25512   6.32500   0.25495   78.69005 -45.00000   0.00100   489  490  491    114
   491   3.78024   6.21976   6.57500   0.25495   78.69005 -45.00000   0.00100   490  491  492    114
   492   3.81559   6.18441   6.82500   0.25495   78.69005 -45.00000   0.00100   491  492  493    114
   493   3.85095   6.14905   7.07500   0.25495   78.69005 -45.00000   0.00100   492  493  494    114
   494   3.88630   6.11370   7.32500   0.25495   78.69005 -45.00000   0.00100   493  494  495    114
   495   3.92166   6.07834   7.57500   0.25495   78.69005 -45.00000   0.00100   494  495  496    114
   496   3.95702   6.04298   7.82500   0.25495   78.69005 -45.00000   0.00100   495  496  497    114
   497   3.99237   6.00763   8.07500   0.25495   78.69005 -45.00000   0.00100   496  497  498    114
   498   4.02773   5.97227   8.32500   0.25495   78.69005 -45.00000   0.00100   497  498  499    114
   499   4.06308   5.93692   8.57500   0.25495   78.69005 -45.00000   0.00100   498  499  500    114
   500   4.09844   5.90156   8.82500   0.25495   78.69005 -45.00000   0.00100   499  500  501    114
   501   4.13379   5.86621   9.07500   0.25495   78.69005 -45.00000   0.00100   500  501  502    114
   502   4.16915   5.83085   9.32500   0.25495   78.69005 -45.00000   0.00100   501  502  503    114
   503   4.20450   5.79550   9.57500   0.25495   78.69005 -45.00000   0.00100   502  503  504    114
   504   4.23986   5.76014   9.82500   0.25495   78.69005 -45.00000   0.00100   503  504  505    114
   505   4.27521   5.72479  10.07500   0.25495   78.69005 -45.00000   0.00100   504  505  506    114
   506   4.31057   5.68943  10.32500   0.25495   78.69005 -45.00000   0.00100   505  506  507    114
   507   4.34593   5.65407  10.57500   0.25495   78.69005 -45.00000   0.00100   506  507  508    114
   508   4.38128   5.61872  10.82500   0.25495   78.69005 -45.00000   0.00100   507  508  509    114
   509   4.41664   5.58336  11.07500   0.25495   78.69005 -45.00000   0.00100   508  509  510    114
   510   4.45199   5.54801  11.32500   0.25495   78.69005 -45.00000   0.00100   509  510  511    114
   511   4.48735   5.51265  11.57500   0.25495   78.69005 -45.00000   0.00100   510  511  512    114
   512   4.52270   5.47730  11.82500   0.25495   78.69005 -45.00000   0.00100   511  512  513    114
   513   4.55806   5.44194  12.07500   0.25495   78.69005 -45.00000   0.00100   512  513  514    114
   514   4.59341   5.40659  12.32500   0.25495   78.69005 -45.00000   0.00100   513  514  515    114
   515   4.62877   5.37123  12.57500   0.25495   78.69005 -45.00000   0.00100   514  515  516    114
   516   4.66412   5.33588  12.82500   0.25495   78.69005 -45.00000   0.00100   515  516  517    114
   517   4.69948   5.30052  13.07500   0.25495   78.69005 -45.00000   0.00100   516  517  518    114
   518   4.73483   5.26517  13.32500   0.25495   78.69005 -45.00000   0.00100   517  518  519    114
   519   4.77019   5.22981  13.57500   0.25495   78.69005 -45.00000   0.00100   518  519  520    114
   520   4.80555   5.19445  13.82500   0.25495   78.69005 -45.00000   0.00100   519  520  521    114
   521   4.84090   5.15910  14.07500   0.25495   78.69005 -45.00000   0.00100   520  521  522    114
   522   4.87626   5.12374  14.32500   0.25495   78.69005 -45.00000   0.00100   521  522  523    114
   523   4.91161   5.08839  14.57500   0.25495   78.69005 -45.00000   0.00100   522  523  524    114
   524   4.94697   5.05303  14.82500   0.25495   78.69005 -45.00000   0.00100   523  524  525    114
   525   4.98232   5.01768  15.07500   0.25495   78.69005 -45.00000   0.00100   524  525 -600    114
   526   5.00000   5.05000   0.39700   0.13724   43.22853  90.00000   0.00100   603  526  527    115
   527   5.00000   5.15000   0.49100   0.13724   43.22853  90.00000   0.00100   526  527  528    115
   528   5.00000   5.25000   0.58500   0.13724   43.22853  90.00000   0.00100   527  528  529    115
   529   5.00000   5.35000   0.67900   0.13724   43.22853  90.00000   0.00100   528  529  530    115
   530   5.00000   5.45000   0.77300   0.13724   43.22853  90.00000   0.00100   529  530  531    115
   531   5.00000   5.55000   0.86700   0.13724   43.22853  90.00000   0.00100   530  531  532    115
   532   5.00000   5.65000   0.96100   0.13724   43.22853  90.00000   0.00100   531  532  533    115
   533   5.00000   5.75000   1.05500   0.13724   43.22853  90.00000   0.00100   532  533  534    115
   534   5.00000   5.85000   1.14900   0.13724   43.22853  90.00000   0.00100   533  534  535    115
   535   5.00000   5.95000   1.24300   0.13724   43.22853  90.00000   0.00100   534  535  536    115
   536   5.00000   6.05000   1.33700   0.13724   43.22853  90.00000   0.00100   535  536  537    115
   537   5.00000   6.15000   1.43100   0.13724   43.22853  90.00000   0.00100   536  537  538    115
   538   5.00000   6.25000   1.52500   0.13724   43.22853  90.00000   0.00100   537  538  539    115
   539   5.00000   6.35000   1.61900   0.13724   43.22853  90.00000   0.00100   538  539  540    115
   540   5.00000   6.45000   1.71300   0.13724   43.22853  90.00000   0.00100   539  540  541    115
   541   5.00000   6.55000   1.80700   0.13724   43.22853  90.00000   0.00100   540  541  542    115
   542   5.00000   6.65000   1.90100   0.13724   43.22853  90.00000   0.00100   541  542  543    115
   543   5.00000   6.75000   1.99500   0.13724   43.22853  90.00000   0.00100   542  543  544    115
   544   5.00000   6.85000   2.08900   0.13724   43.22853  90.00000   0.00100   543  544  545    115
   545   5.00000   6.95000   2.18300   0.13724   43.22853  90.00000   0.00100   544  545  546    115
   546   5.00000   7.05000   2.27700   0.13724   43.22853  90.00000   0.00100   545  546  547    115
   547   5.00000   7.15000   2.37100   0.13724   43.22853  90.00000   0.00100   546  547  548    115
   548   5.00000   7.25000   2.46500   0.13724   43.22853  90.00000   0.00100   547  548  549    115
   549   5.00000   7.35000   2.55900   0.13724   43.22853  90.00000   0.00100   548  549  550    115
   550   5.00000   7.45000   2.65300   0.13724   43.22853  90.00000   0.00100   549  550  551    115
   551   5.00000   7.47500   2.82500   0.25495   78.69007 -90.00000   0.00100   550  551  552    116
   552   5.00000   7.42500   3.07500   0.25495   78.69007 -90.00000   0.00100   551  552  553    116
   553   5.00000   7.37500   3.32500   0.25495   78.69007 -90.00000   0.00100   552  553  554    116
   554   5.00000   7.32500   3.57500   0.25495   78.69007 -90.00000   0.00100   553  554  555    116
   555   5.00000   7.27500   3.82500   0.25495   78.69007 -90.00000   0.00100   554  555  556    116
   556   5.00000   7.22500   4.07500   0.25495   78.69007 -90.00000   0.00100   555  556  557    116
   557   5.00000   7.17500   4.32500   0.25495   78.69007 -90.00000   0.00100   556  557  558    116
   558   5.00000   7.12500   4.57500   0.25495   78.69007 -90.00000   0.00100   557  558  559    116
   559   5.00000   7.07500   4.82500   0.25495   78.69007 -90.00000   0.00100   558  559  560    116
   560   5.00000   7.02500   5.07500   0.25495   78.69007 -90.00000   0.00100   559  560  561    116
   561   5.00000   6.97500   5.32500   0.25495   78.69007 -90.00000   0.00100   560  561  562    116
   562   5.00000   6.92500   5.57500   0.25495   78.69007 -90.00000   0.00100   561  562  563    116
   563   5.00000   6.87500   5.82500   0.25495   78.69007 -90.00000   0.00100   562  563  564    116
   564   5.00000   6.82500   6.07500   0.25495   78.69007 -90.00000   0.00100   563  564  565    116
   565   5.00000   6.77500   6.32500   0.25495   78.69007 -90.00000   0.00100   564  565  566    116
   566   5.00000   6.72500   6.57500   0.25495   78.69007 -90.00000   0.00100   565  566  567    116
   567   5.00000   6.67500   6.82500   0.25495   78.69007 -90.00000   0.00100   566  567  568    116
   568   5.00000   6.62500   7.07500   0.25495   78.69007 -90.00000   0.00100   567  568  569    116
   569   5.00000   6.57500   7.32500   0.25495   78.69007 -90.00000   0.00100   568  569  570    116
   570   5.00000   6.52500   7.57500   0.25495   78.69007 -90.00000   0.00100   569  570  571    116
   571   5.00000   6.47500   7.82500   0.25495   78.69007 -90.00000   0.00100   570  571  572    116
   572   5.00000   6.42500   8.07500   0.25495   78.69007 -90.00000   0.00100   571  572  573    116
   573   5.00000   6.37500   8.32500   0.25495   78.69007 -90.00000   0.00100   572  573  574    116
   574   5.00000   6.32500   8.57500   0.25495   78.69007 -90.00000   0.00100   573  574  575    116
   575   5.00000   6.27500   8.82500   0.25495   78.69007 -90.00000   0.00100   574  575  576    116
   576   5.00000   6.22500   9.07500   0.25495   78.69007 -90.00000   0.00100   575  576  577    116
   577   5.00000   6.17500   9.32500   0.25495   78.69007 -90.00000   0.00100   576  577  578    116
   578   5.00000   6.12500   9.57500   0.25495   78.69007 -90.00000   0.00100   577  578  579    116
   579   5.00000   6.07500   9.82500   0.25495   78.69007 -90.00000   0.00100   578  579  580    116
   580   5.00000   6.02500  10.07500   0.25495   78.69007 -90.00000   0.00100   579  580  581    116
   581   5.00000   5.97500  10.32500   0.25495   78.69007 -90.00000   0.00100   580  581  582    116
   582   5.00000   5.92500  10.57500   0.25495   78.69007 -90.00000   0.00100   581  582  583    116
   583   5.00000   5.87500  10.82500   0.25495   78.69007 -90.00000   0.00100   582  583  584    116
   584   5.00000   5.82500  11.07500   0.25495   78.69007 -90.00000   0.00100   583  584  585    116
   585   5.00000   5.77500  11.32500   0.25495   78.69007 -90.00000   0.00100   584  585  586    116
   586   5.00000   5.72500  11.57500   0.25495   78.69007 -90.00000   0.00100   585  586  587    116
   587   5.00000   5.67500  11.82500   0.25495   78.69007 -90.00000   0.00100   586  587  588    116
   588   5.00000   5.62500  12.07500   0.25495   78.69007 -90.00000   0.00100   587  588  589    116
   589   5.00000   5.57500  12.32500   0.25495   78.69007 -90.00000   0.00100   588  589  590    116
   590   5.00000   5.52500  12.57500   0.25495   78.69007 -90.00000   0.00100   589  590  591    116
   591   5.00000   5.47500  12.82500   0.25495   78.69007 -90.00000   0.00100   590  591  592    116
   592   5.00000   5.42500  13.07500   0.25495   78.69007 -90.00000   0.00100   591  592  593    116
   593   5.00000   5.37500  13.32500   0.25495   78.69007 -90.00000   0.00100   592  593  594    116
   594   5.00000   5.32500  13.57500   0.25495   78.69007 -90.00000   0.00100   593  594  595    116
   595   5.00000   5.27500  13.82500   0.25495   78.69007 -90.00000   0.00100   594  595  596    116
   596   5.00000   5.22500  14.07500   0.25495   78.69007 -90.00000   0.00100   595  596  597    116
   597   5.00000   5.17500  14.32500   0.25495   78.69007 -90.00000   0.00100   596  597  598    116
   598   5.00000   5.12500  14.57500   0.25495   78.69007 -90.00000   0.00100   597  598  599    116
   599   5.00000   5.07500  14.82500   0.25495   78.69007 -90.00000   0.00100   598  599  600    116
   600   5.00000   5.02500  15.07500   0.25495   78.69007 -90.00000   0.00100   599  600  -75    116
   601   5.00000   5.00000   0.22500   0.05000   90.00000   0.00000   0.00100 -2413  601  602    199
   602   5.00000   5.00000   0.27500   0.05000   90.00000   0.00000   0.00100   601  602  603    199
   603   5.00000   5.00000   0.32500   0.05000   90.00000   0.00000   0.00100   602  603    1    199
   604  -4.96464   5.03536   0.39700   0.13724   43.22848  45.00000   0.00100  -679  604  605    201
   605  -4.89393   5.10607   0.49100   0.13724   43.22848  45.00000   0.00100   604  605  606    201
   606  -4.82322   5.17678   0.58500   0.13724   43.22848  45.00000   0.00100   605  606  607    201
   607  -4.75251   5.24749   0.67900   0.13724   43.22848  45.00000   0.00100   606  607  608    201
   608  -4.68180   5.31820   0.77300   0.13724   43.22848  45.00000   0.00100   607  608  609    201
   609  -4.61109   5.38891   0.86700   0.13724   43.22848  45.00000   0.00100   608  609  610    201
   610  -4.54038   5.45962   0.96100   0.13724   43.22848  45.00000   0.00100   609  610  611    201
   611  -4.46967   5.53033   1.05500   0.13724   43.22848  45.00000   0.00100   610  611  612    201
   612  -4.39896   5.60104   1.14900   0.13724   43.22848  45.00000   0.00100   611  612  613    201
   613  -4.32825   5.67175   1.24300   0.13724   43.22848  45.00000   0.00100   612  613  614    201
   614  -4.25754   5.74246   1.33700   0.13724   43.22848  45.00000   0.00100   613  614  615    201
   615  -4.18683   5.81317   1.43100   0.13724   43.22848  45.00000   0.00100   614  615  616    201
   616  -4.11612   5.88388   1.52500   0.13724   43.22848  45.00000   0.00100   615  616  617    201
   617  -4.04540   5.95460   1.61900   0.13724   43.22848  45.00000   0.00100   616  617  618    201
   618  -3.97469   6.02531   1.71300   0.13724   43.22848  45.00000   0.00100   617  618  619    201
   619  -3.90398   6.09602   1.80700   0.13724   43.22848  45.00000   0.00100   618  619  620    201
   620  -3.83327   6.16673   1.90100   0.13724   43.22848  45.00000   0.00100   619  620  621    201
   621  -3.76256   6.23744   1.99500   0.13724   43.22848  45.00000   0.00100   620  621  622    201
   622  -3.69185   6.30815   2.08900   0.13724   43.22848  45.00000   0.00100   621  622  623    201
   623  -3.62114   6.37886   2.18300   0.13724   43.22848  45.00000   0.00100   622  623  624    201
   624  -3.55043   6.44957   2.27700   0.13724   43.22848  45.00000   0.00100   623  624  625    201
   625  -3.47972   6.52028   2.37100   0.13724   43.22848  45.00000   0.00100   624  625  626    201
   626  -3.40901   6.59099   2.46500   0.13724   43.22848  45.00000   0.00100   625  626  627    201
   627  -3.33830   6.66170   2.55900   0.13724   43.22848  45.00000   0.00100   626  627  628    201
   628  -3.26759   6.73241   2.65300   0.13724   43.22848  45.00000   0.00100   627  628  629    201
   629  -3.24991   6.75009   2.82500   0.25495   78.69005-135.00000   0.00100   628  629  630    202
   630  -3.28526   6.71474   3.07500   0.25495   78.69005-135.00000   0.00100   629  630  631    202
   631  -3.32062   6.67938   3.32500   0.25495   78.69005-135.00000   0.00100   630  631  632    202
   632  -3.35597   6.64403   3.57500   0.25495   78.69005-135.00000   0.00100   631  632  633    202
   633  -3.39133   6.60867   3.82500   0.25495   78.69005-135.00000   0.00100   632  633  634    202
   634  -3.42668   6.57332   4.07500   0.25495   78.69005-135.00000   0.00100   633  634  635    202
   635  -3.46204   6.53796   4.32500   0.25495   78.69005-135.00000   0.00100   634  635  636    202
   636  -3.49740   6.50260   4.57500   0.25495   78.69005-135.00000   0.00100   635  636  637    202
[...]
   40.00   315.00      -8.37  -13.25   -7.15    0.03112    29.65  LEFT      1.52911E+01   -36.88    8.71446E+00   -32.74
   45.00   315.00      -7.33  -13.92   -6.47    0.03979    25.00  LEFT      1.72331E+01   -38.46    8.06526E+00   -32.52
   50.00   315.00      -6.46  -14.72   -5.86    0.04606    20.99  LEFT      1.90442E+01   -40.13    7.35659E+00   -32.27
   55.00   315.00      -5.77  -15.68   -5.34    0.05001    17.52  LEFT      2.06325E+01   -41.89    6.59236E+00   -31.98
   60.00   315.00      -5.26  -16.82   -4.96    0.05194    14.51  LEFT      2.18787E+01   -43.77    5.77636E+00   -31.66
   65.00   315.00      -4.97  -18.23   -4.77    0.05221    11.90  LEFT      2.26248E+01   -45.84    4.91229E+00   -31.30
   70.00   315.00      -4.96  -20.01   -4.82    0.05118     9.60  LEFT      2.26482E+01   -48.23    4.00375E+00   -30.90
   75.00   315.00      -5.37  -22.36   -5.28    0.04917     7.55  LEFT      2.15989E+01   -51.20    3.05437E+00   -30.48
   80.00   315.00      -6.56  -25.75   -6.51    0.04644     5.68  LEFT      1.88329E+01   -55.31    2.06790E+00   -30.03
   85.00   315.00      -9.83  -31.65   -9.81    0.04319     3.93  LEFT      1.29165E+01   -61.87    1.04833E+00   -29.55
   90.00   315.00    -999.99 -999.99 -999.99    0.00000     0.00            1.11508E-09   105.52    6.20798E-11   150.90
    0.00   320.00     -32.18  -11.02  -10.99    0.00000    85.00  LINEAR    9.85776E-01   -33.43    1.12675E+01   -33.43
    5.00   320.00     -23.14  -11.03  -10.77    0.00896    76.08  RIGHT     2.79108E+00   -30.65    1.12569E+01   -32.85
   10.00   320.00     -18.72  -11.10  -10.41    0.01413    67.43  RIGHT     4.64219E+00   -29.97    1.11609E+01   -32.25
   15.00   320.00     -15.73  -11.25   -9.92    0.01398    59.17  RIGHT     6.55362E+00   -29.84    1.09796E+01   -31.66
   20.00   320.00     -13.43  -11.46   -9.32    0.00860    51.46  RIGHT     8.53437E+00   -30.04    1.07138E+01   -31.05
   25.00   320.00     -11.56  -11.74   -8.64    0.00059    44.40  LEFT      1.05846E+01   -30.52    1.03656E+01   -30.45
   30.00   320.00      -9.99  -12.11   -7.91    0.01162    38.06  LEFT      1.26932E+01   -31.22    9.93750E+00   -29.84
   35.00   320.00      -8.63  -12.56   -7.16    0.02265    32.44  LEFT      1.48354E+01   -32.10    9.43281E+00   -29.24
   40.00   320.00      -7.46  -13.11   -6.42    0.03237    27.51  LEFT      1.69712E+01   -33.16    8.85528E+00   -28.63
   45.00   320.00      -6.46  -13.77   -5.72    0.04007    23.23  LEFT      1.90426E+01   -34.35    8.20898E+00   -28.03
   50.00   320.00      -5.62  -14.56   -5.10    0.04554    19.53  LEFT      2.09721E+01   -35.67    7.49818E+00   -27.43
   55.00   320.00      -4.95  -15.50   -4.59    0.04890    16.32  LEFT      2.26590E+01   -37.13    6.72715E+00   -26.83
   60.00   320.00      -4.46  -16.64   -4.21    0.05041    13.54  LEFT      2.39739E+01   -38.75    5.90018E+00   -26.23
   65.00   320.00      -4.19  -18.04   -4.01    0.05041    11.12  LEFT      2.47461E+01   -40.59    5.02148E+00   -25.64
   70.00   320.00      -4.19  -19.81   -4.07    0.04922     8.98  LEFT      2.47352E+01   -42.80    4.09520E+00   -25.06
   75.00   320.00      -4.61  -22.16   -4.54    0.04712     7.07  LEFT      2.35625E+01   -45.63    3.12553E+00   -24.49
   80.00   320.00      -5.81  -25.54   -5.76    0.04435     5.32  LEFT      2.05283E+01   -49.64    2.11672E+00   -23.93
   85.00   320.00      -9.09  -31.44   -9.06    0.04109     3.68  LEFT      1.40724E+01   -56.14    1.07327E+00   -23.39
   90.00   320.00    -999.99 -999.99 -999.99    0.00000     0.00            1.21477E-09   111.26    6.35408E-11   157.13
    0.00   325.00     -26.19  -11.12  -10.99    0.00000    80.00  LINEAR    1.96405E+00   -33.43    1.11387E+01   -33.43
    5.00   325.00     -20.48  -11.10  -10.63    0.00843    71.25  RIGHT     3.78999E+00   -30.69    1.11601E+01   -32.28
   10.00   325.00     -16.96  -11.15  -10.14    0.01254    62.87  RIGHT     5.68743E+00   -29.37    1.10972E+01   -31.14
   15.00   325.00     -14.36  -11.27   -9.54    0.01131    54.99  RIGHT     7.66959E+00   -28.62    1.09487E+01   -30.00
   20.00   325.00     -12.28  -11.46   -8.84    0.00530    47.72  RIGHT     9.74312E+00   -28.28    1.07142E+01   -28.89
   25.00   325.00     -10.54  -11.72   -8.08    0.00391    41.12  LEFT      1.19050E+01   -28.25    1.03944E+01   -27.79
   30.00   325.00      -9.05  -12.06   -7.29    0.01444    35.24  LEFT      1.41399E+01   -28.48    9.99088E+00   -26.73
   35.00   325.00      -7.75  -12.50   -6.49    0.02466    30.05  LEFT      1.64183E+01   -28.95    9.50625E+00   -25.69
   40.00   325.00      -6.62  -13.03   -5.73    0.03347    25.52  LEFT      1.86937E+01   -29.62    8.94373E+00   -24.69
   45.00   325.00      -5.65  -13.67   -5.02    0.04033    21.58  LEFT      2.09016E+01   -30.46    8.30720E+00   -23.73
   50.00   325.00      -4.84  -14.44   -4.39    0.04511    18.16  LEFT      2.29564E+01   -31.48    7.60092E+00   -22.80
   55.00   325.00      -4.19  -15.37   -3.87    0.04794    15.20  LEFT      2.47484E+01   -32.66    6.82941E+00   -21.91
   60.00   325.00      -3.71  -16.50   -3.49    0.04907    12.63  LEFT      2.61377E+01   -34.04    5.99732E+00   -21.06
   65.00   325.00      -3.45  -17.89   -3.30    0.04882    10.39  LEFT      2.69400E+01   -35.69    5.10936E+00   -20.26
   70.00   325.00      -3.46  -19.65   -3.36    0.04746     8.40  LEFT      2.68965E+01   -37.73    4.17024E+00   -19.50
   75.00   325.00      -3.89  -22.00   -3.83    0.04526     6.61  LEFT      2.55979E+01   -40.43    3.18475E+00   -18.80
   80.00   325.00      -5.10  -25.38   -5.06    0.04244     4.97  LEFT      2.22870E+01   -44.35    2.15775E+00   -18.14
   85.00   325.00      -8.38  -31.27   -8.36    0.03915     3.43  LEFT      1.52721E+01   -50.80    1.09435E+00   -17.55
   90.00   325.00    -999.99 -999.99 -999.99    0.00000     0.00            1.31813E-09   116.63    6.47556E-11   163.05
    0.00   330.00     -22.73  -11.29  -10.99    0.00000    75.00  LINEAR    2.92738E+00   -33.43    1.09251E+01   -33.43
    5.00   330.00     -18.47  -11.25  -10.49    0.00787    66.48  RIGHT     4.77952E+00   -30.49    1.09773E+01   -31.73
   10.00   330.00     -15.50  -11.27   -9.88    0.01099    58.43  RIGHT     6.72883E+00   -28.63    1.09479E+01   -30.04
   15.00   330.00     -13.18  -11.36   -9.17    0.00885    50.96  RIGHT     8.78732E+00   -27.36    1.08340E+01   -28.40
   20.00   330.00     -11.26  -11.52   -8.38    0.00237    44.14  RIGHT     1.09593E+01   -26.52    1.06338E+01   -26.79
   25.00   330.00      -9.62  -11.76   -7.55    0.00676    38.01  LEFT      1.32386E+01   -26.04    1.03466E+01   -25.24
   30.00   330.00      -8.19  -12.08   -6.70    0.01677    32.57  LEFT      1.56056E+01   -25.86    9.97283E+00   -23.74
   35.00   330.00      -6.94  -12.49   -5.87    0.02622    27.80  LEFT      1.80258E+01   -25.95    9.51401E+00   -22.31
   40.00   330.00      -5.84  -13.00   -5.08    0.03423    23.63  LEFT      2.04467E+01   -26.27    8.97272E+00   -20.94
   45.00   330.00      -4.90  -13.62   -4.35    0.04035    20.01  LEFT      2.27966E+01   -26.80    8.35241E+00   -19.64
   50.00   330.00      -4.10  -14.38   -3.71    0.04453    16.87  LEFT      2.49821E+01   -27.54    7.65720E+00   -18.41
   55.00   330.00      -3.47  -15.29   -3.19    0.04689    14.15  LEFT      2.68843E+01   -28.47    6.89168E+00   -17.26
   60.00   330.00      -3.01  -16.41   -2.81    0.04769    11.77  LEFT      2.83522E+01   -29.64    6.06079E+00   -16.18
   65.00   330.00      -2.75  -17.79   -2.62    0.04721     9.69  LEFT      2.91878E+01   -31.11    5.16966E+00   -15.19
   70.00   330.00      -2.78  -19.54   -2.68    0.04572     7.84  LEFT      2.91128E+01   -33.00    4.22356E+00   -14.27
   75.00   330.00      -3.21  -21.88   -3.15    0.04344     6.17  LEFT      2.76866E+01   -35.59    3.22785E+00   -13.44
   80.00   330.00      -4.42  -25.26   -4.38    0.04057     4.65  LEFT      2.40929E+01   -39.42    2.18810E+00   -12.70
   85.00   330.00      -7.70  -31.15   -7.69    0.03727     3.20  LEFT      1.65043E+01   -45.82    1.11008E+00   -12.05
   90.00   330.00    -999.99 -999.99 -999.99    0.00000     0.00            1.42433E-09   121.62    6.57221E-11   168.45
    0.00   335.00     -20.31  -11.53  -10.99    0.00000    70.00  LINEAR    3.86843E+00   -33.43    1.06284E+01   -33.43
    5.00   335.00     -16.86  -11.46  -10.36    0.00729    61.76  RIGHT     5.75180E+00   -30.18    1.07093E+01   -31.19
   10.00   335.00     -14.26  -11.46   -9.63    0.00951    54.09  RIGHT     7.75810E+00   -27.84    1.07126E+01   -28.99
   15.00   335.00     -12.15  -11.52   -8.81    0.00663    47.05  RIGHT     9.89805E+00   -26.09    1.06338E+01   -26.85
   20.00   335.00     -10.35  -11.66   -7.94    0.00014    40.70  LEFT      1.21736E+01   -24.80    1.04697E+01   -24.78
   25.00   335.00      -8.78  -11.87   -7.05    0.00909    35.03  LEFT      1.45752E+01   -23.90    1.02180E+01   -22.80
   30.00   335.00      -7.41  -12.16   -6.15    0.01855    30.03  LEFT      1.70792E+01   -23.35    9.87784E+00   -20.90
   35.00   335.00      -6.19  -12.55   -5.29    0.02728    25.65  LEFT      1.96456E+01   -23.10    9.44957E+00   -19.10
   40.00   335.00      -5.12  -13.03   -4.47    0.03454    21.84  LEFT      2.22164E+01   -23.11    8.93494E+00   -17.39
   45.00   335.00      -4.20  -13.64   -3.73    0.04000    18.52  LEFT      2.47126E+01   -23.36    8.33681E+00   -15.79
   50.00   335.00      -3.42  -14.37   -3.08    0.04364    15.64  LEFT      2.70327E+01   -23.85    7.65901E+00   -14.29
   55.00   335.00      -2.79  -15.27   -2.56    0.04560    13.13  LEFT      2.90487E+01   -24.56    6.90610E+00   -12.90
   60.00   335.00      -2.34  -16.37   -2.17    0.04612    10.95  LEFT      3.05982E+01   -25.54    6.08316E+00   -11.61
   65.00   335.00      -2.10  -17.74   -1.98    0.04546     9.02  LEFT      3.14694E+01   -26.83    5.19569E+00   -10.44
   70.00   335.00      -2.13  -19.49   -2.05    0.04387     7.31  LEFT      3.13638E+01   -28.59    4.24942E+00    -9.38
   75.00   335.00      -2.57  -21.82   -2.52    0.04154     5.76  LEFT      2.98094E+01   -31.07    3.25033E+00    -8.44
   80.00   335.00      -3.78  -25.19   -3.75    0.03867     4.33  LEFT      2.59289E+01   -34.83    2.20463E+00    -7.62
   85.00   335.00      -7.07  -31.08   -7.05    0.03538     2.98  LEFT      1.77573E+01   -41.18    1.11887E+00    -6.92
   90.00   335.00    -999.99 -999.99 -999.99    0.00000     0.00            1.53228E-09   126.27    6.62897E-11   173.60
    0.00   340.00     -18.47  -11.84  -10.99    0.00000    65.00  LINEAR    4.78004E+00   -33.43    1.02508E+01   -33.43
    5.00   340.00     -15.54  -11.75  -10.23    0.00670    57.11  RIGHT     6.69904E+00   -29.83    1.03574E+01   -30.67
   10.00   340.00     -13.20  -11.72   -9.39    0.00813    49.85  RIGHT     8.76678E+00   -27.03    1.03914E+01   -27.98
   15.00   340.00     -11.23  -11.76   -8.48    0.00468    43.27  RIGHT     1.09925E+01   -24.83    1.03471E+01   -25.37
   20.00   340.00      -9.53  -11.87   -7.53    0.00223    37.38  LEFT      1.33758E+01   -23.14    1.02195E+01   -22.87
   25.00   340.00      -8.03  -12.05   -6.58    0.01088    32.17  LEFT      1.59036E+01   -21.87    1.00048E+01   -20.48
   30.00   340.00      -6.69  -12.32   -5.64    0.01976    27.59  LEFT      1.85480E+01   -20.97    9.70083E+00   -18.22
   35.00   340.00      -5.50  -12.68   -4.74    0.02778    23.60  LEFT      2.12641E+01   -20.41    9.30674E+00   -16.08
   40.00   340.00      -4.46  -13.14   -3.91    0.03435    20.12  LEFT      2.39875E+01   -20.14    8.82332E+00   -14.06
   45.00   340.00      -3.55  -13.72   -3.15    0.03921    17.09  LEFT      2.66326E+01   -20.15    8.25275E+00   -12.19
   50.00   340.00      -2.78  -14.44   -2.50    0.04237    14.45  LEFT      2.90899E+01   -20.40    7.59844E+00   -10.44
   55.00   340.00      -2.17  -15.32   -1.96    0.04398    12.16  LEFT      3.12218E+01   -20.92    6.86479E+00    -8.83
   60.00   340.00      -1.72  -16.41   -1.58    0.04428    10.15  LEFT      3.28550E+01   -21.71    6.05694E+00    -7.36
   65.00   340.00      -1.49  -17.77   -1.39    0.04349     8.37  LEFT      3.37633E+01   -22.86    5.18062E+00    -6.03
   70.00   340.00      -1.52  -19.51   -1.45    0.04183     6.79  LEFT      3.36284E+01   -24.50    4.24199E+00    -4.85
   75.00   340.00      -1.97  -21.83   -1.92    0.03950     5.35  LEFT      3.19457E+01   -26.88    3.24755E+00    -3.81
   80.00   340.00      -3.18  -25.19   -3.16    0.03666     4.03  LEFT      2.77772E+01   -30.58    2.20415E+00    -2.91
   85.00   340.00      -6.47  -31.08   -6.46    0.03343     2.77  LEFT      1.90191E+01   -36.88    1.11905E+00    -2.17
   90.00   340.00    -999.99 -999.99 -999.99    0.00000     0.00            1.64101E-09   130.59    6.63366E-11   178.40
    0.00   345.00     -17.01  -12.24  -10.99    0.00000    60.00  LINEAR    5.65526E+00   -33.43    9.79521E+00   -33.43
    5.00   345.00     -14.43  -12.12  -10.11    0.00610    52.50  RIGHT     7.61354E+00   -29.45    9.92354E+00   -30.17
   10.00   345.00     -12.28  -12.07   -9.16    0.00685    45.69  RIGHT     9.74626E+00   -26.23    9.98532E+00   -27.01
   15.00   345.00     -10.43  -12.08   -8.17    0.00300    39.59  RIGHT     1.20612E+01   -23.62    9.97339E+00   -23.97
   20.00   345.00      -8.80  -12.16   -7.15    0.00389    34.17  LEFT      1.45552E+01   -21.55    9.88132E+00   -21.07
   25.00   345.00      -7.34  -12.32   -6.14    0.01215    29.41  LEFT      1.72116E+01   -19.94    9.70390E+00   -18.31
   30.00   345.00      -6.04  -12.56   -5.16    0.02041    25.24  LEFT      1.99985E+01   -18.73    9.43745E+00   -15.70
   35.00   345.00      -4.87  -12.90   -4.24    0.02774    21.61  LEFT      2.28657E+01   -17.89    9.08002E+00   -13.26
   40.00   345.00      -3.84  -13.34   -3.38    0.03365    18.45  LEFT      2.57431E+01   -17.37    8.63144E+00   -10.97
   45.00   345.00      -2.95  -13.89   -2.61    0.03796    15.70  LEFT      2.85382E+01   -17.15    8.09314E+00    -8.84
   50.00   345.00      -2.19  -14.59   -1.95    0.04070    13.30  LEFT      3.11335E+01   -17.20    7.46805E+00    -6.88
   55.00   345.00      -1.59  -15.46   -1.41    0.04202    11.21  LEFT      3.33824E+01   -17.53    6.76029E+00    -5.08
   60.00   345.00      -1.15  -16.53   -1.03    0.04213     9.37  LEFT      3.51003E+01   -18.17    5.97496E+00    -3.45
   65.00   345.00      -0.92  -17.87   -0.83    0.04125     7.74  LEFT      3.60468E+01   -19.19    5.11793E+00    -1.98
   70.00   345.00      -0.96  -19.60   -0.90    0.03958     6.28  LEFT      3.58837E+01   -20.71    4.19563E+00    -0.68
   75.00   345.00      -1.41  -21.91   -1.37    0.03728     4.95  LEFT      3.40742E+01   -23.01    3.21502E+00     0.45
   80.00   345.00      -2.63  -25.27   -2.60    0.03451     3.73  LEFT      2.96193E+01   -26.64    2.18351E+00     1.41
   85.00   345.00      -5.92  -31.16   -5.90    0.03138     2.56  LEFT      2.02768E+01   -32.91    1.10901E+00     2.19
   90.00   345.00    -999.99 -999.99 -999.99    0.00000     0.00            1.74952E-09   134.58    6.56796E-11  -177.23
    0.00   350.00     -15.82  -12.72  -10.99    0.00000    55.00  LINEAR    6.48745E+00   -33.43    9.26505E+00   -33.43
    5.00   350.00     -13.48  -12.58  -10.00    0.00551    47.95  RIGHT     8.48772E+00   -29.06    9.41057E+00   -29.70
   10.00   350.00     -11.48  -12.51   -8.95    0.00570    41.62  RIGHT     1.06879E+01   -25.44    9.49616E+00   -26.10
   15.00   350.00      -9.72  -12.49   -7.87    0.00161    36.00  RIGHT     1.30941E+01   -22.46    9.51344E+00   -22.66
   20.00   350.00      -8.14  -12.54   -6.79    0.00513    31.06  LEFT      1.57002E+01   -20.04    9.45465E+00   -19.38
   25.00   350.00      -6.72  -12.67   -5.74    0.01291    26.73  LEFT      1.84863E+01   -18.12    9.31328E+00   -16.28
   30.00   350.00      -5.44  -12.89   -4.72    0.02052    22.96  LEFT      2.14160E+01   -16.64    9.08441E+00   -13.37
   35.00   350.00      -4.30  -13.20   -3.77    0.02718    19.68  LEFT      2.44341E+01   -15.55    8.76500E+00   -10.65
   40.00   350.00      -3.28  -13.62   -2.90    0.03247    16.83  LEFT      2.74649E+01   -14.81    8.35394E+00    -8.12
   45.00   350.00      -2.40  -14.16   -2.12    0.03627    14.34  LEFT      3.04092E+01   -14.38    7.85194E+00    -5.77
   50.00   350.00      -1.65  -14.84   -1.45    0.03862    12.17  LEFT      3.31419E+01   -14.24    7.26137E+00    -3.61
   55.00   350.00      -1.05  -15.68   -0.90    0.03969    10.27  LEFT      3.55073E+01   -14.41    6.58602E+00    -1.65
   60.00   350.00      -0.62  -16.74   -0.52    0.03967     8.60  LEFT      3.73099E+01   -14.91    5.83083E+00     0.13
   65.00   350.00      -0.39  -18.07   -0.32    0.03874     7.11  LEFT      3.82953E+01   -15.80    5.00167E+00     1.73
   70.00   350.00      -0.44  -19.79   -0.39    0.03709     5.78  LEFT      3.81055E+01   -17.23    4.10518E+00     3.12
   75.00   350.00      -0.89  -22.09   -0.86    0.03487     4.56  LEFT      3.61719E+01   -19.44    3.14861E+00     4.33
   80.00   350.00      -2.11  -25.45   -2.09    0.03222     3.43  LEFT      3.14352E+01   -23.02    2.13982E+00     5.34
   85.00   350.00      -5.40  -31.33   -5.39    0.02922     2.36  LEFT      2.15169E+01   -29.25    1.08725E+00     6.15
   90.00   350.00    -999.99 -999.99 -999.99    0.00000     0.00            1.85634E-09   138.24    6.44885E-11  -173.23
    0.00   355.00     -14.83  -13.30  -10.99    0.00000    50.00  LINEAR    7.27027E+00   -33.43    8.66437E+00   -33.43
    5.00   355.00     -12.67  -13.15   -9.89    0.00492    43.45  RIGHT     9.31424E+00   -28.69    8.82195E+00   -29.26
   10.00   355.00     -10.78  -13.04   -8.76    0.00467    37.62  RIGHT     1.15831E+01   -24.70    8.92653E+00   -25.25
   15.00   355.00      -9.08  -13.00   -7.61    0.00049    32.49  RIGHT     1.40811E+01   -21.37    8.96877E+00   -21.43
   20.00   355.00      -7.55  -13.03   -6.47    0.00597    28.02  LEFT      1.67993E+01   -18.64    8.93986E+00   -17.82
   25.00   355.00      -6.16  -13.14   -5.37    0.01321    24.12  LEFT      1.97140E+01   -16.44    8.83218E+00   -14.42
   30.00   355.00      -4.90  -13.33   -4.32    0.02015    20.74  LEFT      2.27847E+01   -14.71    8.63978E+00   -11.23
   35.00   355.00      -3.77  -13.61   -3.34    0.02613    17.80  LEFT      2.59516E+01   -13.39    8.35867E+00    -8.26
   40.00   355.00      -2.77  -14.01   -2.45    0.03083    15.24  LEFT      2.91333E+01   -12.45    7.98691E+00    -5.51
   45.00   355.00      -1.89  -14.53   -1.66    0.03416    13.01  LEFT      3.22242E+01   -11.83    7.52451E+00    -2.97
   50.00   355.00      -1.15  -15.19   -0.98    0.03618    11.06  LEFT      3.50920E+01   -11.54    6.97329E+00    -0.64
   55.00   355.00      -0.56  -16.02   -0.44    0.03703     9.34  LEFT      3.75720E+01   -11.56    6.33665E+00     1.47
   60.00   355.00      -0.13  -17.06   -0.05    0.03690     7.83  LEFT      3.94583E+01   -11.93    5.61928E+00     3.38
   65.00   355.00       0.09  -18.38    0.15    0.03596     6.49  LEFT      4.04828E+01   -12.71    4.82695E+00     5.08
   70.00   355.00       0.04  -20.09    0.08    0.03437     5.27  LEFT      4.02679E+01   -14.04    3.96632E+00     6.56
   75.00   355.00      -0.41  -22.39   -0.38    0.03227     4.17  LEFT      3.82143E+01   -16.19    3.04484E+00     7.84
   80.00   355.00      -1.63  -25.73   -1.62    0.02976     3.14  LEFT      3.32038E+01   -19.71    2.07062E+00     8.89
   85.00   355.00      -4.93  -31.61   -4.92    0.02695     2.16  LEFT      2.27249E+01   -25.91    1.05249E+00     9.73
   90.00   355.00    -999.99 -999.99 -999.99    0.00000     0.00            1.96063E-09   141.60    6.22973E-11  -169.64






 ***** DATA CARD NO.  9   EN   0     0     0     0  0.00000E+00  0.00000E+00  0.00000E+00  0.00000E+00  0.00000E+00  0.00000E+00

 RUN TIME =   186.594
