1



                                 *********************************************

                                    NUMERICAL ELECTROMAGNETICS CODE (NEC-2D)

                                 *********************************************




                                     - - - - COMMENTS - - - -


                                                                                                     
                                                                                                     




                                 - - - STRUCTURE SPECIFICATION - - -

                                     COORDINATES MUST BE INPUT IN
                                     METERS OR BE SCALED TO METERS
                                     BEFORE STRUCTURE INPUT IS ENDED


  WIRE                                                                               NO. OF    FIRST  LAST     TAG
  NO.        X1         Y1         Z1          X2         Y2         Z2      RADIUS   SEG.     SEG.   SEG.     NO.
     1   -7.50000   -5.00000   -5.00000    -7.50000   -5.00000    5.00000    0.00100     20        1    20     101
     2   -2.50000   -5.00000   -5.00000    -2.50000   -5.00000    5.00000    0.00100     20       21    40     102
     3    2.50000   -5.00000   -5.00000     2.50000   -5.00000    5.00000    0.00100     20       41    60     103
     4    7.50000   -5.00000   -5.00000     7.50000   -5.00000    5.00000    0.00100     20       61    80     104
     5   -7.50000    0.00000   -5.00000    -7.50000    0.00000    5.00000    0.00100     20       81   100     201
     6   -2.50000    0.00000   -5.00000    -2.50000    0.00000    5.00000    0.00100     20      101   120     202
     7    2.50000    0.00000   -5.00000     2.50000    0.00000    5.00000    0.00100     20      121   140     203
     8    7.50000    0.00000   -5.00000     7.50000    0.00000    5.00000    0.00100     20      141   160     204
     9   -7.50000    5.00000   -5.00000    -7.50000    5.00000    5.00000    0.00100     20      161   180     301
    10   -2.50000    5.00000   -5.00000    -2.50000    5.00000    5.00000    0.00100     20      181   200     302
    11    2.50000    5.00000   -5.00000     2.50000    5.00000    5.00000    0.00100     20      201   220     303
    12    7.50000    5.00000   -5.00000     7.50000    5.00000    5.00000    0.00100     20      221   240     304

   TOTAL SEGMENTS USED=  240     NO. SEG. IN A SYMMETRIC CELL=  240     SYMMETRY FLAG=  0


         - MULTIPLE WIRE JUNCTIONS -
 JUNCTION    SEGMENTS  (- FOR END 1, + FOR END 2)
  NONE




                                 - - - - SEGMENTATION DATA - - - -

                                        COORDINATES IN METERS

                         I+ AND I- INDICATE THE SEGMENTS BEFORE AND AFTER I


  SEG.   COORDINATES OF SEG. CENTER     SEG.     ORIENTATION ANGLES    WIRE    CONNECTION DATA   TAG
  NO.       X         Y         Z       LENGTH     ALPHA     BETA      RADIUS    I-   I    I+    NO.
     1  -7.50000  -5.00000  -4.75000   0.50000   90.00000   0.00000   0.00100     0    1    2    101
     2  -7.50000  -5.00000  -4.25000   0.50000   90.00000   0.00000   0.00100     1    2    3    101
     3  -7.50000  -5.00000  -3.75000   0.50000   90.00000   0.00000   0.00100     2    3    4    101
     4  -7.50000  -5.00000  -3.25000   0.50000   90.00000   0.00000   0.00100     3    4    5    101
     5  -7.50000  -5.00000  -2.75000   0.50000   90.00000   0.00000   0.00100     4    5    6    101
     6  -7.50000  -5.00000  -2.25000   0.50000   90.00000   0.00000   0.00100     5    6    7    101
     7  -7.50000  -5.00000  -1.75000   0.50000   90.00000   0.00000   0.00100     6    7    8    101
     8  -7.50000  -5.00000  -1.25000   0.50000   90.00000   0.00000   0.00100     7    8    9    101
     9  -7.50000  -5.00000  -0.75000   0.50000   90.00000   0.00000   0.00100     8    9   10    101
    10  -7.50000  -5.00000  -0.25000   0.50000   90.00000   0.00000   0.00100     9   10   11    101
    11  -7.50000  -5.00000   0.25000   0.50000   90.00000   0.00000   0.00100    10   11   12    101
    12  -7.50000  -5.00000   0.75000   0.50000   90.00000   0.00000   0.00100    11   12   13    101
    13  -7.50000  -5.00000   1.25000   0.50000   90.00000   0.00000   0.00100    12   13   14    101
    14  -7.50000  -5.00000   1.75000   0.50000   90.00000   0.00000   0.00100    13   14   15    101
    15  -7.50000  -5.00000   2.25000   0.50000   90.00000   0.00000   0.00100    14   15   16    101
    16  -7.50000  -5.00000   2.75000   0.50000   90.00000   0.00000   0.00100    15   16   17    101
    17  -7.50000  -5.00000   3.25000   0.50000   90.00000   0.00000   0.00100    16   17   18    101
    18  -7.50000  -5.00000   3.75000   0.50000   90.00000   0.00000   0.00100    17   18   19    101
    19  -7.50000  -5.00000   4.25000   0.50000   90.00000   0.00000   0.00100    18   19   20    101
    20  -7.50000  -5.00000   4.75000   0.50000   90.00000   0.00000   0.00100    19   20    0    101
    21  -2.50000  -5.00000  -4.75000   0.50000   90.00000   0.00000   0.00100     0   21   22    102
    22  -2.50000  -5.00000  -4.25000   0.50000   90.00000   0.00000   0.00100    21   22   23    102
    23  -2.50000  -5.00000  -3.75000   0.50000   90.00000   0.00000   0.00100    22   23   24    102
    24  -2.50000  -5.00000  -3.25000   0.50000   90.00000   0.00000   0.00100    23   24   25    102
    25  -2.50000  -5.00000  -2.75000   0.50000   90.00000   0.00000   0.00100    24   25   26    102
    26  -2.50000  -5.00000  -2.25000   0.50000   90.00000   0.00000   0.00100    25   26   27    102
    27  -2.50000  -5.00000  -1.75000   0.50000   90.00000   0.00000   0.00100    26   27   28    102
    28  -2.50000  -5.00000  -1.25000   0.50000   90.00000   0.00000   0.00100    27   28   29    102
    29  -2.50000  -5.00000  -0.75000   0.50000   90.00000   0.00000   0.00100    28   29   30    102
    30  -2.50000  -5.00000  -0.25000   0.50000   90.00000   0.00000   0.00100    29   30   31    102
    31  -2.50000  -5.00000   0.25000   0.50000   90.00000   0.00000   0.00100    30   31   32    102
    32  -2.50000  -5.00000   0.75000   0.50000   90.00000   0.00000   0.00100    31   32   33    102
    33  -2.50000  -5.00000   1.25000   0.50000   90.00000   0.00000   0.00100    32   33   34    102
    34  -2.50000  -5.00000   1.75000   0.50000   90.00000   0.00000   0.00100    33   34   35    102
    35  -2.50000  -5.00000   2.25000   0.50000   90.00000   0.00000   0.00100    34   35   36    102
    36  -2.50000  -5.00000   2.75000   0.50000   90.00000   0.00000   0.00100    35   36   37    102
    37  -2.50000  -5.00000   3.25000   0.50000   90.00000   0.00000   0.00100    36   37   38    102
    38  -2.50000  -5.00000   3.75000   0.50000   90.00000   0.00000   0.00100    37   38   39    102
    39  -2.50000  -5.00000   4.25000   0.50000   90.00000   0.00000   0.00100    38   39   40    102
    40  -2.50000  -5.00000   4.75000   0.50000   90.00000   0.00000   0.00100    39   40    0    102
    41   2.50000  -5.00000  -4.75000   0.50000   90.00000   0.00000   0.00100     0   41   42    103
    42   2.50000  -5.00000  -4.25000   0.50000   90.00000   0.00000   0.00100    41   42   43    103
    43   2.50000  -5.00000  -3.75000   0.50000   90.00000   0.00000   0.00100    42   43   44    103
    44   2.50000  -5.00000  -3.25000   0.50000   90.00000   0.00000   0.00100    43   44   45    103
    45   2.50000  -5.00000  -2.75000   0.50000   90.00000   0.00000   0.00100    44   45   46    103
    46   2.50000  -5.00000  -2.25000   0.50000   90.00000   0.00000   0.00100    45   46   47    103
    47   2.50000  -5.00000  -1.75000   0.50000   90.00000   0.00000   0.00100    46   47   48    103
    48   2.50000  -5.00000  -1.25000   0.50000   90.00000   0.00000   0.00100    47   48   49    103
    49   2.50000  -5.00000  -0.75000   0.50000   90.00000   0.00000   0.00100    48   49   50    103
    50   2.50000  -5.00000  -0.25000   0.50000   90.00000   0.00000   0.00100    49   50   51    103
    51   2.50000  -5.00000   0.25000   0.50000   90.00000   0.00000   0.00100    50   51   52    103
    52   2.50000  -5.00000   0.75000   0.50000   90.00000   0.00000   0.00100    51   52   53    103
    53   2.50000  -5.00000   1.25000   0.50000   90.00000   0.00000   0.00100    52   53   54    103
    54   2.50000  -5.00000   1.75000   0.50000   90.00000   0.00000   0.00100    53   54   55    103
    55   2.50000  -5.00000   2.25000   0.50000   90.00000   0.00000   0.00100    54   55   56    103
    56   2.50000  -5.00000   2.75000   0.50000   90.00000   0.00000   0.00100    55   56   57    103
    57   2.50000  -5.00000   3.25000   0.50000   90.00000   0.00000   0.00100    56   57   58    103
    58   2.50000  -5.00000   3.75000   0.50000   90.00000   0.00000   0.00100    57   58   59    103
    59   2.50000  -5.00000   4.25000   0.50000   90.00000   0.00000   0.00100    58   59   60    103
    60   2.50000  -5.00000   4.75000   0.50000   90.00000   0.00000   0.00100    59   60    0    103
    61   7.50000  -5.00000  -4.75000   0.50000   90.00000   0.00000   0.00100     0   61   62    104
    62   7.50000  -5.00000  -4.25000   0.50000   90.00000   0.00000   0.00100    61   62   63    104
    63   7.50000  -5.00000  -3.75000   0.50000   90.00000   0.00000   0.00100    62   63   64    104
    64   7.50000  -5.00000  -3.25000   0.50000   90.00000   0.00000   0.00100    63   64   65    104
    65   7.50000  -5.00000  -2.75000   0.50000   90.00000   0.00000   0.00100    64   65   66    104
    66   7.50000  -5.00000  -2.25000   0.50000   90.00000   0.00000   0.00100    65   66   67    104
    67   7.50000  -5.00000  -1.75000   0.50000   90.00000   0.00000   0.00100    66   67   68    104
    68   7.50000  -5.00000  -1.25000   0.50000   90.00000   0.00000   0.00100    67   68   69    104
    69   7.50000  -5.00000  -0.75000   0.50000   90.00000   0.00000   0.00100    68   69   70    104
    70   7.50000  -5.00000  -0.25000   0.50000   90.00000   0.00000   0.00100    69   70   71    104
    71   7.50000  -5.00000   0.25000   0.50000   90.00000   0.00000   0.00100    70   71   72    104
    72   7.50000  -5.00000   0.75000   0.50000   90.00000   0.00000   0.00100    71   72   73    104
    73   7.50000  -5.00000   1.25000   0.50000   90.00000   0.00000   0.00100    72   73   74    104
    74   7.50000  -5.00000   1.75000   0.50000   90.00000   0.00000   0.00100    73   74   75    104
    75   7.50000  -5.00000   2.25000   0.50000   90.00000   0.00000   0.00100    74   75   76    104
    76   7.50000  -5.00000   2.75000   0.50000   90.00000   0.00000   0.00100    75   76   77    104
    77   7.50000  -5.00000   3.25000   0.50000   90.00000   0.00000   0.00100    76   77   78    104
    78   7.50000  -5.00000   3.75000   0.50000   90.00000   0.00000   0.00100    77   78   79    104
    79   7.50000  -5.00000   4.25000   0.50000   90.00000   0.00000   0.00100    78   79   80    104
    80   7.50000  -5.00000   4.75000   0.50000   90.00000   0.00000   0.00100    79   80    0    104
    81  -7.50000   0.00000  -4.75000   0.50000   90.00000   0.00000   0.00100     0   81   82    201
    82  -7.50000   0.00000  -4.25000   0.50000   90.00000   0.00000   0.00100    81   82   83    201
    83  -7.50000   0.00000  -3.75000   0.50000   90.00000   0.00000   0.00100    82   83   84    201
    84  -7.50000   0.00000  -3.25000   0.50000   90.00000   0.00000   0.00100    83   84   85    201
    85  -7.50000   0.00000  -2.75000   0.50000   90.00000   0.00000   0.00100    84   85   86    201
    86  -7.50000   0.00000  -2.25000   0.50000   90.00000   0.00000   0.00100    85   86   87    201
    87  -7.50000   0.00000  -1.75000   0.50000   90.00000   0.00000   0.00100    86   87   88    201
    88  -7.50000   0.00000  -1.25000   0.50000   90.00000   0.00000   0.00100    87   88   89    201
    89  -7.50000   0.00000  -0.75000   0.50000   90.00000   0.00000   0.00100    88   89   90    201
    90  -7.50000   0.00000  -0.25000   0.50000   90.00000   0.00000   0.00100    89   90   91    201
    91  -7.50000   0.00000   0.25000   0.50000   90.00000   0.00000   0.00100    90   91   92    201
    92  -7.50000   0.00000   0.75000   0.50000   90.00000   0.00000   0.00100    91   92   93    201
    93  -7.50000   0.00000   1.25000   0.50000   90.00000   0.00000   0.00100    92   93   94    201
    94  -7.50000   0.00000   1.75000   0.50000   90.00000   0.00000   0.00100    93   94   95    201
    95  -7.50000   0.00000   2.25000   0.50000   90.00000   0.00000   0.00100    94   95   96    201
    96  -7.50000   0.00000   2.75000   0.50000   90.00000   0.00000   0.00100    95   96   97    201
    97  -7.50000   0.00000   3.25000   0.50000   90.00000   0.00000   0.00100    96   97   98    201
    98  -7.50000   0.00000   3.75000   0.50000   90.00000   0.00000   0.00100    97   98   99    201
    99  -7.50000   0.00000   4.25000   0.50000   90.00000   0.00000   0.00100    98   99  100    201
   100  -7.50000   0.00000   4.75000   0.50000   90.00000   0.00000   0.00100    99  100    0    201
   101  -2.50000   0.00000  -4.75000   0.50000   90.00000   0.00000   0.00100     0  101  102    202
   102  -2.50000   0.00000  -4.25000   0.50000   90.00000   0.00000   0.00100   101  102  103    202
   103  -2.50000   0.00000  -3.75000   0.50000   90.00000   0.00000   0.00100   102  103  104    202
   104  -2.50000   0.00000  -3.25000   0.50000   90.00000   0.00000   0.00100   103  104  105    202
   105  -2.50000   0.00000  -2.75000   0.50000   90.00000   0.00000   0.00100   104  105  106    202
   106  -2.50000   0.00000  -2.25000   0.50000   90.00000   0.00000   0.00100   105  106  107    202
   107  -2.50000   0.00000  -1.75000   0.50000   90.00000   0.00000   0.00100   106  107  108    202
   108  -2.50000   0.00000  -1.25000   0.50000   90.00000   0.00000   0.00100   107  108  109    202
   109  -2.50000   0.00000  -0.75000   0.50000   90.00000   0.00000   0.00100   108  109  110    202
   110  -2.50000   0.00000  -0.25000   0.50000   90.00000   0.00000   0.00100   109  110  111    202
   111  -2.50000   0.00000   0.25000   0.50000   90.00000   0.00000   0.00100   110  111  112    202
   112  -2.50000   0.00000   0.75000   0.50000   90.00000   0.00000   0.00100   111  112  113    202
   113  -2.50000   0.00000   1.25000   0.50000   90.00000   0.00000   0.00100   112  113  114    202
   114  -2.50000   0.00000   1.75000   0.50000   90.00000   0.00000   0.00100   113  114  115    202
   115  -2.50000   0.00000   2.25000   0.50000   90.00000   0.00000   0.00100   114  115  116    202
   116  -2.50000   0.00000   2.75000   0.50000   90.00000   0.00000   0.00100   115  116  117    202
   117  -2.50000   0.00000   3.25000   0.50000   90.00000   0.00000   0.00100   116  117  118    202
   118  -2.50000   0.00000   3.75000   0.50000   90.00000   0.00000   0.00100   117  118  119    202
   119  -2.50000   0.00000   4.25000   0.50000   90.00000   0.00000   0.00100   118  119  120    202
   120  -2.50000   0.00000   4.75000   0.50000   90.00000   0.00000   0.00100   119  120    0    202
   121   2.50000   0.00000  -4.75000   0.50000   90.00000   0.00000   0.00100     0  121  122    203
   122   2.50000   0.00000  -4.25000   0.50000   90.00000   0.00000   0.00100   121  122  123    203
   123   2.50000   0.00000  -3.75000   0.50000   90.00000   0.00000   0.00100   122  123  124    203
   124   2.50000   0.00000  -3.25000   0.50000   90.00000   0.00000   0.00100   123  124  125    203
   125   2.50000   0.00000  -2.75000   0.50000   90.00000   0.00000   0.00100   124  125  126    203
   126   2.50000   0.00000  -2.25000   0.50000   90.00000   0.00000   0.00100   125  126  127    203
   127   2.50000   0.00000  -1.75000   0.50000   90.00000   0.00000   0.00100   126  127  128    203
   128   2.50000   0.00000  -1.25000   0.50000   90.00000   0.00000   0.00100   127  128  129    203
   129   2.50000   0.00000  -0.75000   0.50000   90.00000   0.00000   0.00100   128  129  130    203
   130   2.50000   0.00000  -0.25000   0.50000   90.00000   0.00000   0.00100   129  130  131    203
   131   2.50000   0.00000   0.25000   0.50000   90.00000   0.00000   0.00100   130  131  132    203
   132   2.50000   0.00000   0.75000   0.50000   90.00000   0.00000   0.00100   131  132  133    203
   133   2.50000   0.00000   1.25000   0.50000   90.00000   0.00000   0.00100   132  133  134    203
   134   2.50000   0.00000   1.75000   0.50000   90.00000   0.00000   0.00100   133  134  135    203
   135   2.50000   0.00000   2.25000   0.50000   90.00000   0.00000   0.00100   134  135  136    203
   136   2.50000   0.00000   2.75000   0.50000   90.00000   0.00000   0.00100   135  136  137    203
   137   2.50000   0.00000   3.25000   0.50000   90.00000   0.00000   0.00100   136  137  138    203
   138   2.50000   0.00000   3.75000   0.50000   90.00000   0.00000   0.00100   137  138  139    203
   139   2.50000   0.00000   4.25000   0.50000   90.00000   0.00000   0.00100   138  139  140    203
   140   2.50000   0.00000   4.75000   0.50000   90.00000   0.00000   0.00100   139  140    0    203
   141   7.50000   0.00000  -4.75000   0.50000   90.00000   0.00000   0.00100     0  141  142    204
   142   7.50000   0.00000  -4.25000   0.50000   90.00000   0.00000   0.00100   141  142  143    204
   143   7.50000   0.00000  -3.75000   0.50000   90.00000   0.00000   0.00100   142  143  144    204
   144   7.50000   0.00000  -3.25000   0.50000   90.00000   0.00000   0.00100   143  144  145    204
   145   7.50000   0.00000  -2.75000   0.50000   90.00000   0.00000   0.00100   144  145  146    204
   146   7.50000   0.00000  -2.25000   0.50000   90.00000   0.00000   0.00100   145  146  147    204
   147   7.50000   0.00000  -1.75000   0.50000   90.00000   0.00000   0.00100   146  147  148    204
   148   7.50000   0.00000  -1.25000   0.50000   90.00000   0.00000   0.00100   147  148  149    204
   149   7.50000   0.00000  -0.75000   0.50000   90.00000   0.00000   0.00100   148  149  150    204
   150   7.50000   0.00000  -0.25000   0.50000   90.00000   0.00000   0.00100   149  150  151    204
   151   7.50000   0.00000   0.25000   0.50000   90.00000   0.00000   0.00100   150  151  152    204
   152   7.50000   0.00000   0.75000   0.50000   90.00000   0.00000   0.00100   151  152  153    204
   153   7.50000   0.00000   1.25000   0.50000   90.00000   0.00000   0.00100   152  153  154    204
   154   7.50000   0.00000   1.75000   0.50000   90.00000   0.00000   0.00100   153  154  155    204
   155   7.50000   0.00000   2.25000   0.50000   90.00000   0.00000   0.00100   154  155  156    204
   156   7.50000   0.00000   2.75000   0.50000   90.00000   0.00000   0.00100   155  156  157    204
   157   7.50000   0.00000   3.25000   0.50000   90.00000   0.00000   0.00100   156  157  158    204
   158   7.50000   0.00000   3.75000   0.50000   90.00000   0.00000   0.00100   157  158  159    204
   159   7.50000   0.00000   4.25000   0.50000   90.00000   0.00000   0.00100   158  159  160    204
   160   7.50000   0.00000   4.75000   0.50000   90.00000   0.00000   0.00100   159  160    0    204
   161  -7.50000   5.00000  -4.75000   0.50000   90.00000   0.00000   0.00100     0  161  162    301
   162  -7.50000   5.00000  -4.25000   0.50000   90.00000   0.00000   0.00100   161  162  163    301
   163  -7.50000   5.00000  -3.75000   0.50000   90.00000   0.00000   0.00100   162  163  164    301
   164  -7.50000   5.00000  -3.25000   0.50000   90.00000   0.00000   0.00100   163  164  165    301
   165  -7.50000   5.00000  -2.75000   0.50000   90.00000   0.00000   0.00100   164  165  166    301
   166  -7.50000   5.00000  -2.25000   0.50000   90.00000   0.00000   0.00100   165  166  167    301
   167  -7.50000   5.00000  -1.75000   0.50000   90.00000   0.00000   0.00100   166  167  168    301
   168  -7.50000   5.00000  -1.25000   0.50000   90.00000   0.00000   0.00100   167  168  169    301
   169  -7.50000   5.00000  -0.75000   0.50000   90.00000   0.00000   0.00100   168  169  170    301
   170  -7.50000   5.00000  -0.25000   0.50000   90.00000   0.00000   0.00100   169  170  171    301
   171  -7.50000   5.00000   0.25000   0.50000   90.00000   0.00000   0.00100   170  171  172    301
   172  -7.50000   5.00000   0.75000   0.50000   90.00000   0.00000   0.00100   171  172  173    301
   173  -7.50000   5.00000   1.25000   0.50000   90.00000   0.00000   0.00100   172  173  174    301
   174  -7.50000   5.00000   1.75000   0.50000   90.00000   0.00000   0.00100   173  174  175    301
   175  -7.50000   5.00000   2.25000   0.50000   90.00000   0.00000   0.00100   174  175  176    301
   176  -7.50000   5.00000   2.75000   0.50000   90.00000   0.00000   0.00100   175  176  177    301
   177  -7.50000   5.00000   3.25000   0.50000   90.00000   0.00000   0.00100   176  177  178    301
   178  -7.50000   5.00000   3.75000   0.50000   90.00000   0.00000   0.00100   177  178  179    301
   179  -7.50000   5.00000   4.25000   0.50000   90.00000   0.00000   0.00100   178  179  180    301
   180  -7.50000   5.00000   4.75000   0.50000   90.00000   0.00000   0.00100   179  180    0    301
   181  -2.50000   5.00000  -4.75000   0.50000   90.00000   0.00000   0.00100     0  181  182    302
   182  -2.50000   5.00000  -4.25000   0.50000   90.00000   0.00000   0.00100   181  182  183    302
   183  -2.50000   5.00000  -3.75000   0.50000   90.00000   0.00000   0.00100   182  183  184    302
   184  -2.50000   5.00000  -3.25000   0.50000   90.00000   0.00000   0.00100   183  184  185    302
   185  -2.50000   5.00000  -2.75000   0.50000   90.00000   0.00000   0.00100   184  185  186    302
   186  -2.50000   5.00000  -2.25000   0.50000   90.00000   0.00000   0.00100   185  186  187    302
   187  -2.50000   5.00000  -1.75000   0.50000   90.00000   0.00000   0.00100   186  187  188    302
   188  -2.50000   5.00000  -1.25000   0.50000   90.00000   0.00000   0.00100   187  188  189    302
   189  -2.50000   5.00000  -0.75000   0.50000   90.00000   0.00000   0.00100   188  189  190    302
   190  -2.50000   5.00000  -0.25000   0.50000   90.00000   0.00000   0.00100   189  190  191    302
   191  -2.50000   5.00000   0.25000   0.50000   90.00000   0.00000   0.00100   190  191  192    302
   192  -2.50000   5.00000   0.75000   0.50000   90.00000   0.00000   0.00100   191  192  193    302
   193  -2.50000   5.00000   1.25000   0.50000   90.00000   0.00000   0.00100   192  193  194    302
   194  -2.50000   5.00000   1.75000   0.50000   90.00000   0.00000   0.00100   193  194  195    302
   195  -2.50000   5.00000   2.25000   0.50000   90.00000   0.00000   0.00100   194  195  196    302
   196  -2.50000   5.00000   2.75000   0.50000   90.00000   0.00000   0.00100   195  196  197    302
   197  -2.50000   5.00000   3.25000   0.50000   90.00000   0.00000   0.00100   196  197  198    302
   198  -2.50000   5.00000   3.75000   0.50000   90.00000   0.00000   0.00100   197  198  199    302
   199  -2.50000   5.00000   4.25000   0.50000   90.00000   0.00000   0.00100   198  199  200    302
   200  -2.50000   5.00000   4.75000   0.50000   90.00000   0.00000   0.00100   199  200    0    302
   201   2.50000   5.00000  -4.75000   0.50000   90.00000   0.00000   0.00100     0  201  202    303
   202   2.50000   5.00000  -4.25000   0.50000   90.00000   0.00000   0.00100   201  202  203    303
   203   2.50000   5.00000  -3.75000   0.50000   90.00000   0.00000   0.00100   202  203  204    303
   204   2.50000   5.00000  -3.25000   0.50000   90.00000   0.00000   0.00100   203  204  205    303
   205   2.50000   5.00000  -2.75000   0.50000   90.00000   0.00000   0.00100   204  205  206    303
   206   2.50000   5.00000  -2.25000   0.50000   90.00000   0.00000   0.00100   205  206  207    303
   207   2.50000   5.00000  -1.75000   0.50000   90.00000   0.00000   0.00100   206  207  208    303
   208   2.50000   5.00000  -1.25000   0.50000   90.00000   0.00000   0.00100   207  208  209    303
   209   2.50000   5.00000  -0.75000   0.50000   90.00000   0.00000   0.00100   208  209  210    303
   210   2.50000   5.00000  -0.25000   0.50000   90.00000   0.00000   0.00100   209  210  211    303
   211   2.50000   5.00000   0.25000   0.50000   90.00000   0.00000   0.00100   210  211  212    303
   212   2.50000   5.00000   0.75000   0.50000   90.00000   0.00000   0.00100   211  212  213    303
   213   2.50000   5.00000   1.25000   0.50000   90.00000   0.00000   0.00100   212  213  214    303
   214   2.50000   5.00000   1.75000   0.50000   90.00000   0.00000   0.00100   213  214  215    303
   215   2.50000   5.00000   2.25000   0.50000   90.00000   0.00000   0.00100   214  215  216    303
   216   2.50000   5.00000   2.75000   0.50000   90.00000   0.00000   0.00100   215  216  217    303
   217   2.50000   5.00000   3.25000   0.50000   90.00000   0.00000   0.00100   216  217  218    303
   218   2.50000   5.00000   3.75000   0.50000   90.00000   0.00000   0.00100   217  218  219    303
   219   2.50000   5.00000   4.25000   0.50000   90.00000   0.00000   0.00100   218  219  220    303
   220   2.50000   5.00000   4.75000   0.50000   90.00000   0.00000   0.00100   219  220    0    303
   221   7.50000   5.00000  -4.75000   0.50000   90.00000   0.00000   0.00100     0  221  222    304
   222   7.50000   5.00000  -4.25000   0.50000   90.00000   0.00000   0.00100   221  222  223    304
   223   7.50000   5.00000  -3.75000   0.50000   90.00000   0.00000   0.00100   222  223  224    304
   224   7.50000   5.00000  -3.25000   0.50000   90.00000   0.00000   0.00100   223  224  225    304
   225   7.50000   5.00000  -2.75000   0.50000   90.00000   0.00000   0.00100   224  225  226    304
   226   7.50000   5.00000  -2.25000   0.50000   90.00000   0.00000   0.00100   225  226  227    304
   227   7.50000   5.00000  -1.75000   0.50000   90.00000   0.00000   0.00100   226  227  228    304
   228   7.50000   5.00000  -1.25000   0.50000   90.00000   0.00000   0.00100   227  228  229    304
   229   7.50000   5.00000  -0.75000   0.50000   90.00000   0.00000   0.00100   228  229  230    304
   230   7.50000   5.00000  -0.25000   0.50000   90.00000   0.00000   0.00100   229  230  231    304
   231   7.50000   5.00000   0.25000   0.50000   90.00000   0.00000   0.00100   230  231  232    304
   232   7.50000   5.00000   0.75000   0.50000   90.00000   0.00000   0.00100   231  232  233    304
   233   7.50000   5.00000   1.25000   0.50000   90.00000   0.00000   0.00100   232  233  234    304
   234   7.50000   5.00000   1.75000   0.50000   90.00000   0.00000   0.00100   233  234  235    304
   235   7.50000   5.00000   2.25000   0.50000   90.00000   0.00000   0.00100   234  235  236    304
   236   7.50000   5.00000   2.75000   0.50000   90.00000   0.00000   0.00100   235  236  237    304
   237   7.50000   5.00000   3.25000   0.50000   90.00000   0.00000   0.00100   236  237  238    304
   238   7.50000   5.00000   3.75000   0.50000   90.00000   0.00000   0.00100   237  238  239    304
   239   7.50000   5.00000   4.25000   0.50000   90.00000   0.00000   0.00100   238  239  240    304
   240   7.50000   5.00000   4.75000   0.50000   90.00000   0.00000   0.00100   239  240    0    304






 ***** DATA CARD NO.  1   GN  -1     0     0     0  1.00000E+01  1.00000E-02  0.00000E+00  0.00000E+00  0.00000E+00  0.00000E+00
 ***** DATA CARD NO.  2   FR   0     0     0     0  1.50000E+02  0.00000E+00  0.00000E+00  0.00000E+00  0.00000E+00  0.00000E+00
 ***** DATA CARD NO.  3   EX   0   101    10     0  1.00000E-09  0.00000E+00  0.00000E+00  0.00000E+00  0.00000E+00  0.00000E+00
 ***** DATA CARD NO.  4   EX   0   102    10     0  1.00000E-09  0.00000E+00  0.00000E+00  0.00000E+00  0.00000E+00  0.00000E+00
 ***** DATA CARD NO.  5   EX   0   103    10     0  1.00000E-09  0.00000E+00  0.00000E+00  0.00000E+00  0.00000E+00  0.00000E+00
 ***** DATA CARD NO.  6   EX   0   104    10     0  1.00000E-09  0.00000E+00  0.00000E+00  0.00000E+00  0.00000E+00  0.00000E+00
 ***** DATA CARD NO.  7   EX   0   201    10     0  1.00000E-09  0.00000E+00  0.00000E+00  0.00000E+00  0.00000E+00  0.00000E+00
 ***** DATA CARD NO.  8   EX   0   202    10     0 -1.15760E-03  4.23200E-03  0.00000E+00  0.00000E+00  0.00000E+00  0.00000E+00
 ***** DATA CARD NO.  9   EX   0   203    10     0  1.00000E-09  0.00000E+00  0.00000E+00  0.00000E+00  0.00000E+00  0.00000E+00
 ***** DATA CARD NO. 10   EX   0   204    10     0  1.00000E-09  0.00000E+00  0.00000E+00  0.00000E+00  0.00000E+00  0.00000E+00
 ***** DATA CARD NO. 11   EX   0   301    10     0  1.00000E-09  0.00000E+00  0.00000E+00  0.00000E+00  0.00000E+00  0.00000E+00
 ***** DATA CARD NO. 12   EX   0   302    10     0  1.00000E-09  0.00000E+00  0.00000E+00  0.00000E+00  0.00000E+00  0.00000E+00
 ***** DATA CARD NO. 13   EX   0   303    10     0  1.00000E-09  0.00000E+00  0.00000E+00  0.00000E+00  0.00000E+00  0.00000E+00
 ***** DATA CARD NO. 14   EX   0   304    10     0  1.00000E-09  0.00000E+00  0.00000E+00  0.00000E+00  0.00000E+00  0.00000E+00
 ***** DATA CARD NO. 15   RP   0    19    72  1010  0.00000E+00  0.00000E+00  5.00000E+00  5.00000E+00  0.00000E+00  0.00000E+00




                                 - - - - - - FREQUENCY - - - - - -

                                    FREQUENCY= 1.5000E+02 MHZ
                                    WAVELENGTH= 1.9987E+00 METERS




                    APPROXIMATE INTEGRATION EMPLOYED FOR SEGMENTS MORE THAN   1.000 WAVELENGTHS APART



                               - - - STRUCTURE IMPEDANCE LOADING - - -

                                   THIS STRUCTURE IS NOT LOADED



                                  - - - ANTENNA ENVIRONMENT - - -

                                            FREE SPACE



                                - - - MATRIX TIMING - - -

                        FILL=    0.047 SEC.,  FACTOR=    0.031 SEC.



                                          - - - ANTENNA INPUT PARAMETERS - - -

   TAG   SEG.    VOLTAGE (VOLTS)         CURRENT (AMPS)         IMPEDANCE (OHMS)        ADMITTANCE (MHOS)      POWER
   NO.   NO.    REAL        IMAG.       REAL        IMAG.       REAL        IMAG.       REAL        IMAG.     (WATTS)
   101    10 1.00000E-09 0.00000E+00-2.81883E-07 3.15201E-07-1.57644E-03-1.76277E-03-2.81883E+02 3.15201E+02-1.40942E-16
   102    30 1.00000E-09 0.00000E+00-6.44284E-08-1.41872E-07-2.65369E-03 5.84347E-03-6.44284E+01-1.41872E+02-3.22142E-17
   103    50 1.00000E-09 0.00000E+00-2.94693E-07 3.14257E-07-1.58777E-03-1.69318E-03-2.94693E+02 3.14257E+02-1.47347E-16
   104    70 1.00000E-09 0.00000E+00 1.19432E-07 1.60653E-08 8.22415E-03-1.10627E-03 1.19432E+02 1.60653E+01 5.97160E-17
   201    90 1.00000E-09 0.00000E+00-7.43918E-08-1.47510E-07-2.72563E-03 5.40460E-03-7.43918E+01-1.47510E+02-3.71959E-17
   202   110-1.15760E-03 4.23200E-03 2.35870E-06 1.41372E-05 2.77953E+02 1.28258E+02 2.96616E-03-1.36870E-03 2.85491E-08
   203   130 1.00000E-09 0.00000E+00-6.98987E-08-1.41804E-07-2.79661E-03 5.67348E-03-6.98987E+01-1.41804E+02-3.49493E-17
   204   150 1.00000E-09 0.00000E+00-6.53844E-08 1.15967E-07-3.68913E-03-6.54313E-03-6.53844E+01 1.15967E+02-3.26922E-17
   301   170 1.00000E-09 0.00000E+00-2.81883E-07 3.15201E-07-1.57644E-03-1.76277E-03-2.81883E+02 3.15201E+02-1.40942E-16
   302   190 1.00000E-09 0.00000E+00-6.44284E-08-1.41872E-07-2.65369E-03 5.84347E-03-6.44284E+01-1.41872E+02-3.22142E-17
   303   210 1.00000E-09 0.00000E+00-2.94693E-07 3.14257E-07-1.58777E-03-1.69318E-03-2.94693E+02 3.14257E+02-1.47347E-16
   304   230 1.00000E-09 0.00000E+00 1.19432E-07 1.60653E-08 8.22415E-03-1.10627E-03 1.19432E+02 1.60653E+01 5.97160E-17



                             - - - CURRENTS AND LOCATION - - -

                                 DISTANCES IN WAVELENGTHS


  SEG.  TAG    COORD. OF SEG. CENTER     SEG.            - - - CURRENT (AMPS) - - -
  NO.   NO.     X        Y        Z      LENGTH     REAL        IMAG.       MAG.        PHASE
     1  101  -3.7525  -2.5017  -2.3766  0.25017  -3.8945E-07  3.6532E-07  5.3397E-07  136.832
     2  101  -3.7525  -2.5017  -2.1264  0.25017  -4.0796E-07  4.1248E-07  5.8015E-07  134.684
     3  101  -3.7525  -2.5017  -1.8763  0.25017   3.0530E-07 -2.9105E-07  4.2180E-07  -43.631
     4  101  -3.7525  -2.5017  -1.6261  0.25017   4.3049E-07 -3.9917E-07  5.8707E-07  -42.838
     5  101  -3.7525  -2.5017  -1.3759  0.25017  -1.2907E-07  2.6383E-07  2.9371E-07  116.068
     6  101  -3.7525  -2.5017  -1.1258  0.25017  -1.8961E-07  3.8036E-07  4.2500E-07  116.497
     7  101  -3.7525  -2.5017  -0.8756  0.25017   3.2869E-07 -2.7948E-07  4.3145E-07  -40.373
     8  101  -3.7525  -2.5017  -0.6254  0.25017   3.0548E-07 -4.4850E-07  5.4265E-07  -55.740
     9  101  -3.7525  -2.5017  -0.3753  0.25017  -2.8062E-07  1.3963E-07  3.1344E-07  153.545
    10  101  -3.7525  -2.5017  -0.1251  0.25017  -2.8188E-07  3.1520E-07  4.2286E-07  131.806
    11  101  -3.7525  -2.5017   0.1251  0.25017   3.2917E-07 -1.4707E-07  3.6053E-07  -24.074
    12  101  -3.7525  -2.5017   0.3753  0.25017   3.8547E-07 -1.6240E-07  4.1829E-07  -22.846
    13  101  -3.7525  -2.5017   0.6254  0.25017  -1.8450E-07  3.5712E-07  4.0197E-07  117.322
    14  101  -3.7525  -2.5017   0.8756  0.25017  -2.5451E-07  2.7907E-07  3.7769E-07  132.365
    15  101  -3.7525  -2.5017   1.1258  0.25017   2.3857E-07 -3.9606E-07  4.6237E-07  -58.937
    16  101  -3.7525  -2.5017   1.3759  0.25017   2.0005E-07 -4.1335E-07  4.5921E-07  -64.174
    17  101  -3.7525  -2.5017   1.6261  0.25017  -3.7237E-07  2.5750E-07  4.5273E-07  145.336
    18  101  -3.7525  -2.5017   1.8763  0.25017  -3.3087E-07  2.9884E-07  4.4585E-07  137.912
    19  101  -3.7525  -2.5017   2.1264  0.25017   3.1598E-07 -3.6713E-07  4.8439E-07  -49.282
    20  101  -3.7525  -2.5017   2.3766  0.25017   3.3506E-07 -3.8106E-07  5.0741E-07  -48.675
    21  102  -1.2508  -2.5017  -2.3766  0.25017  -5.1317E-08 -1.8965E-07  1.9647E-07 -105.141
    22  102  -1.2508  -2.5017  -2.1264  0.25017  -6.6817E-10  4.6004E-09  4.6486E-09   98.264
    23  102  -1.2508  -2.5017  -1.8763  0.25017   7.0133E-08  4.4976E-07  4.5520E-07   81.137
    24  102  -1.2508  -2.5017  -1.6261  0.25017  -1.9856E-08  2.0427E-07  2.0524E-07   95.552
    25  102  -1.2508  -2.5017  -1.3759  0.25017  -3.0262E-08 -4.0140E-07  4.0254E-07  -94.311
    26  102  -1.2508  -2.5017  -1.1258  0.25017   2.1514E-07 -3.3725E-07  4.0003E-07  -57.465
    27  102  -1.2508  -2.5017  -0.8756  0.25017   3.3394E-07  2.0415E-07  3.9139E-07   31.439
    28  102  -1.2508  -2.5017  -0.6254  0.25017   2.3038E-08  2.1243E-07  2.1368E-07   83.811
    29  102  -1.2508  -2.5017  -0.3753  0.25017  -2.7555E-07 -2.1277E-07  3.4814E-07 -142.326
    30  102  -1.2508  -2.5017  -0.1251  0.25017  -6.4428E-08 -1.4187E-07  1.5582E-07 -114.424
    31  102  -1.2508  -2.5017   0.1251  0.25017   3.1991E-07  3.0942E-07  4.4506E-07   44.046
    32  102  -1.2508  -2.5017   0.3753  0.25017   2.7336E-07  2.2383E-07  3.5331E-07   39.311
    33  102  -1.2508  -2.5017   0.6254  0.25017  -6.3087E-08 -2.5860E-07  2.6618E-07 -103.710
    34  102  -1.2508  -2.5017   0.8756  0.25017  -1.4783E-07 -1.8410E-07  2.3611E-07 -128.764
    35  102  -1.2508  -2.5017   1.1258  0.25017   8.0690E-09  3.0582E-07  3.0592E-07   88.489
    36  102  -1.2508  -2.5017   1.3759  0.25017   1.7511E-08  1.8991E-07  1.9072E-07   84.732
    37  102  -1.2508  -2.5017   1.6261  0.25017  -1.0719E-07 -4.2721E-07  4.4046E-07 -104.085
    38  102  -1.2508  -2.5017   1.8763  0.25017  -8.9307E-08 -4.2993E-07  4.3910E-07 -101.735
    39  102  -1.2508  -2.5017   2.1264  0.25017   2.1178E-08  2.0194E-07  2.0305E-07   84.013
    40  102  -1.2508  -2.5017   2.3766  0.25017   2.2240E-08  3.0039E-07  3.0121E-07   85.766
    41  103   1.2508  -2.5017  -2.3766  0.25017  -4.0307E-07  3.6575E-07  5.4428E-07  137.779
    42  103   1.2508  -2.5017  -2.1264  0.25017  -4.2344E-07  4.1194E-07  5.9076E-07  135.788
    43  103   1.2508  -2.5017  -1.8763  0.25017   3.1530E-07 -2.9521E-07  4.3193E-07  -43.115
    44  103   1.2508  -2.5017  -1.6261  0.25017   4.4544E-07 -4.0426E-07  6.0153E-07  -42.226
    45  103   1.2508  -2.5017  -1.3759  0.25017  -1.3573E-07  2.6066E-07  2.9387E-07  117.506
    46  103   1.2508  -2.5017  -1.1258  0.25017  -1.9882E-07  3.7614E-07  4.2545E-07  117.860
    47  103   1.2508  -2.5017  -0.8756  0.25017   3.4207E-07 -2.8688E-07  4.4645E-07  -39.985
    48  103   1.2508  -2.5017  -0.6254  0.25017   3.2138E-07 -4.5456E-07  5.5669E-07  -54.739
    49  103   1.2508  -2.5017  -0.3753  0.25017  -2.8855E-07  1.3819E-07  3.1994E-07  154.409
    50  103   1.2508  -2.5017  -0.1251  0.25017  -2.9469E-07  3.1426E-07  4.3081E-07  133.160
    51  103   1.2508  -2.5017   0.1251  0.25017   3.3732E-07 -1.5048E-07  3.6936E-07  -24.042
    52  103   1.2508  -2.5017   0.3753  0.25017   3.9561E-07 -1.6380E-07  4.2818E-07  -22.492
    53  103   1.2508  -2.5017   0.6254  0.25017  -1.9804E-07  3.6071E-07  4.1150E-07  118.768
    54  103   1.2508  -2.5017   0.8756  0.25017  -2.7223E-07  2.8266E-07  3.9243E-07  133.923
    55  103   1.2508  -2.5017   1.1258  0.25017   2.4334E-07 -3.9633E-07  4.6507E-07  -58.451
    56  103   1.2508  -2.5017   1.3759  0.25017   2.0866E-07 -4.1383E-07  4.6345E-07  -63.242
    57  103   1.2508  -2.5017   1.6261  0.25017  -3.8598E-07  2.5918E-07  4.6493E-07  146.119
    58  103   1.2508  -2.5017   1.8763  0.25017  -3.4699E-07  2.9843E-07  4.5767E-07  139.302
    59  103   1.2508  -2.5017   2.1264  0.25017   3.2461E-07 -3.7129E-07  4.9318E-07  -48.838
    60  103   1.2508  -2.5017   2.3766  0.25017   3.4775E-07 -3.8349E-07  5.1769E-07  -47.798
    61  104   3.7525  -2.5017  -2.3766  0.25017   1.3747E-07  2.7303E-08  1.4015E-07   11.234
    62  104   3.7525  -2.5017  -2.1264  0.25017   1.4752E-07  6.2598E-08  1.6025E-07   22.993
    63  104   3.7525  -2.5017  -1.8763  0.25017  -7.6308E-08  3.8962E-08  8.5679E-08  152.951
    64  104   3.7525  -2.5017  -1.6261  0.25017  -8.5344E-08  1.1283E-08  8.6087E-08  172.469
    65  104   3.7525  -2.5017  -1.3759  0.25017   1.2325E-07  7.1373E-09  1.2345E-07    3.314
    66  104   3.7525  -2.5017  -1.1258  0.25017   1.4698E-07 -2.5405E-08  1.4916E-07   -9.807
    67  104   3.7525  -2.5017  -0.8756  0.25017  -1.3244E-08 -8.6880E-08  8.7883E-08  -98.667
    68  104   3.7525  -2.5017  -0.6254  0.25017   1.0685E-08 -9.4191E-08  9.4795E-08  -83.528
    69  104   3.7525  -2.5017  -0.3753  0.25017   1.8121E-07 -3.0388E-08  1.8374E-07   -9.520
    70  104   3.7525  -2.5017  -0.1251  0.25017   1.1943E-07  1.6065E-08  1.2051E-07    7.661
    71  104   3.7525  -2.5017   0.1251  0.25017  -1.2023E-07  1.0672E-08  1.2070E-07  174.927
    72  104   3.7525  -2.5017   0.3753  0.25017  -1.2898E-07  2.4976E-08  1.3137E-07  169.040
    73  104   3.7525  -2.5017   0.6254  0.25017   6.6153E-08  7.7280E-08  1.0173E-07   49.436
    74  104   3.7525  -2.5017   0.8756  0.25017   7.1272E-08  7.5404E-08  1.0376E-07   46.613
    75  104   3.7525  -2.5017   1.1258  0.25017  -9.0945E-08 -1.5610E-08  9.2275E-08 -170.260
    76  104   3.7525  -2.5017   1.3759  0.25017  -5.3936E-08 -9.7630E-08  1.1154E-07 -118.919
    77  104   3.7525  -2.5017   1.6261  0.25017   1.1913E-07 -1.0182E-07  1.5672E-07  -40.520
    78  104   3.7525  -2.5017   1.8763  0.25017   3.9024E-08 -8.1730E-08  9.0569E-08  -64.476
    79  104   3.7525  -2.5017   2.1264  0.25017  -2.0454E-07 -7.6729E-08  2.1846E-07 -159.438
    80  104   3.7525  -2.5017   2.3766  0.25017  -1.5437E-07 -3.8232E-08  1.5903E-07 -166.090
    81  201  -3.7525   0.0000  -2.3766  0.25017  -6.2333E-08 -1.9585E-07  2.0553E-07 -107.655
    82  201  -3.7525   0.0000  -2.1264  0.25017  -1.4329E-08 -4.0051E-09  1.4878E-08 -164.384
    83  201  -3.7525   0.0000  -1.8763  0.25017   7.6684E-08  4.4865E-07  4.5516E-07   80.301
    84  201  -3.7525   0.0000  -1.6261  0.25017  -8.0106E-09  2.0364E-07  2.0380E-07   92.253
    85  201  -3.7525   0.0000  -1.3759  0.25017  -3.4860E-08 -4.0960E-07  4.1109E-07  -94.864
    86  201  -3.7525   0.0000  -1.1258  0.25017   2.0771E-07 -3.4510E-07  4.0279E-07  -58.957
    87  201  -3.7525   0.0000  -0.8756  0.25017   3.4335E-07  2.0539E-07  4.0009E-07   30.888
    88  201  -3.7525   0.0000  -0.6254  0.25017   3.4374E-08  2.1517E-07  2.1790E-07   80.924
    89  201  -3.7525   0.0000  -0.3753  0.25017  -2.8233E-07 -2.1772E-07  3.5652E-07 -142.362
    90  201  -3.7525   0.0000  -0.1251  0.25017  -7.4392E-08 -1.4751E-07  1.6521E-07 -116.763
    91  201  -3.7525   0.0000   0.1251  0.25017   3.2667E-07  3.1224E-07  4.5189E-07   43.706
    92  201  -3.7525   0.0000   0.3753  0.25017   2.8183E-07  2.2828E-07  3.6268E-07   39.007
    93  201  -3.7525   0.0000   0.6254  0.25017  -7.2683E-08 -2.6168E-07  2.7159E-07 -105.523
    94  201  -3.7525   0.0000   0.8756  0.25017  -1.6024E-07 -1.8783E-07  2.4689E-07 -130.467
    95  201  -3.7525   0.0000   1.1258  0.25017   1.2762E-08  3.1118E-07  3.1145E-07   87.652
    96  201  -3.7525   0.0000   1.3759  0.25017   2.4386E-08  1.9788E-07  1.9937E-07   82.974
    97  201  -3.7525   0.0000   1.6261  0.25017  -1.1691E-07 -4.2697E-07  4.4269E-07 -105.313
    98  201  -3.7525   0.0000   1.8763  0.25017  -9.8999E-08 -4.3214E-07  4.4334E-07 -102.903
    99  201  -3.7525   0.0000   2.1264  0.25017   3.1086E-08  2.0646E-07  2.0879E-07   81.437
   100  201  -3.7525   0.0000   2.3766  0.25017   3.3205E-08  3.0521E-07  3.0701E-07   83.791
   101  202  -1.2508   0.0000  -2.3766  0.25017   4.4028E-06  1.3993E-05  1.4669E-05   72.534
   102  202  -1.2508   0.0000  -2.1264  0.25017   2.0735E-06  1.2755E-05  1.2922E-05   80.766
   103  202  -1.2508   0.0000  -1.8763  0.25017  -5.4171E-06 -1.3714E-05  1.4745E-05 -111.554
   104  202  -1.2508   0.0000  -1.6261  0.25017  -1.6128E-06 -1.2549E-05  1.2652E-05  -97.324
   105  202  -1.2508   0.0000  -1.3759  0.25017   5.7979E-06  1.3601E-05  1.4785E-05   66.911
   106  202  -1.2508   0.0000  -1.1258  0.25017   1.3362E-06  1.2529E-05  1.2600E-05   83.913
   107  202  -1.2508   0.0000  -0.8756  0.25017  -6.0221E-06 -1.3623E-05  1.4895E-05 -113.847
   108  202  -1.2508   0.0000  -0.6254  0.25017  -8.9249E-07 -1.2674E-05  1.2706E-05  -94.028
   109  202  -1.2508   0.0000  -0.3753  0.25017   6.4747E-06  1.3801E-05  1.5245E-05   64.867
   110  202  -1.2508   0.0000  -0.1251  0.25017   2.3587E-06  1.4137E-05  1.4333E-05   80.528
   111  202  -1.2508   0.0000   0.1251  0.25017   3.1271E-06 -9.5292E-06  1.0029E-05  -71.832
   112  202  -1.2508   0.0000   0.3753  0.25017  -6.6755E-07 -1.2504E-05  1.2521E-05  -93.056
   113  202  -1.2508   0.0000   0.6254  0.25017  -2.8635E-06  9.9124E-06  1.0318E-05  106.113
   114  202  -1.2508   0.0000   0.8756  0.25017   5.8666E-07  1.2377E-05  1.2391E-05   87.286
   115  202  -1.2508   0.0000   1.1258  0.25017   2.5894E-06 -1.0077E-05  1.0405E-05  -75.590
   116  202  -1.2508   0.0000   1.3759  0.25017  -4.5283E-07 -1.2348E-05  1.2357E-05  -92.100
   117  202  -1.2508   0.0000   1.6261  0.25017  -2.3504E-06  1.0195E-05  1.0462E-05  102.983
   118  202  -1.2508   0.0000   1.8763  0.25017   1.8970E-07  1.2273E-05  1.2274E-05   89.114
   119  202  -1.2508   0.0000   2.1264  0.25017   2.0383E-06 -1.0593E-05  1.0788E-05  -79.109
   120  202  -1.2508   0.0000   2.3766  0.25017   6.1387E-07 -1.2244E-05  1.2260E-05  -87.130
   121  203   1.2508   0.0000  -2.3766  0.25017  -5.4715E-08 -1.8287E-07  1.9088E-07 -106.657
   122  203   1.2508   0.0000  -2.1264  0.25017  -5.4473E-09  7.9027E-09  9.5983E-09  124.578
   123  203   1.2508   0.0000  -1.8763  0.25017   7.4459E-08  4.3621E-07  4.4252E-07   80.313
   124  203   1.2508   0.0000  -1.6261  0.25017  -8.5541E-09  1.9048E-07  1.9067E-07   92.571
   125  203   1.2508   0.0000  -1.3759  0.25017  -2.0834E-08 -4.0168E-07  4.0222E-07  -92.969
   126  203   1.2508   0.0000  -1.1258  0.25017   2.2435E-07 -3.3775E-07  4.0547E-07  -56.407
   127  203   1.2508   0.0000  -0.8756  0.25017   3.4749E-07  1.9278E-07  3.9738E-07   29.021
   128  203   1.2508   0.0000  -0.6254  0.25017   3.2798E-08  2.0428E-07  2.0690E-07   80.879
   129  203   1.2508   0.0000  -0.3753  0.25017  -2.7821E-07 -2.0912E-07  3.4804E-07 -143.068
   130  203   1.2508   0.0000  -0.1251  0.25017  -6.9899E-08 -1.4180E-07  1.5810E-07 -116.240
   131  203   1.2508   0.0000   0.1251  0.25017   3.2479E-07  2.9828E-07  4.4098E-07   42.563
   132  203   1.2508   0.0000   0.3753  0.25017   2.8113E-07  2.1807E-07  3.5580E-07   37.800
   133  203   1.2508   0.0000   0.6254  0.25017  -6.8380E-08 -2.5166E-07  2.6078E-07 -105.201
   134  203   1.2508   0.0000   0.8756  0.25017  -1.6318E-07 -1.8182E-07  2.4431E-07 -131.907
   135  203   1.2508   0.0000   1.1258  0.25017  -2.3144E-09  2.9689E-07  2.9690E-07   90.447
   136  203   1.2508   0.0000   1.3759  0.25017   1.3215E-08  1.8836E-07  1.8883E-07   85.987
   137  203   1.2508   0.0000   1.6261  0.25017  -1.1443E-07 -4.1594E-07  4.3139E-07 -105.382
   138  203   1.2508   0.0000   1.8763  0.25017  -9.6917E-08 -4.2796E-07  4.3880E-07 -102.760
   139  203   1.2508   0.0000   2.1264  0.25017   2.2131E-08  1.8664E-07  1.8795E-07   83.238
   140  203   1.2508   0.0000   2.3766  0.25017   2.6340E-08  2.9085E-07  2.9204E-07   84.825
   141  204   3.7525   0.0000  -2.3766  0.25017  -8.1316E-08  1.6381E-07  1.8288E-07  116.401
   142  204   3.7525   0.0000  -2.1264  0.25017  -1.0081E-07  1.2966E-07  1.6424E-07  127.865
   143  204   3.7525   0.0000  -1.8763  0.25017   7.1044E-09 -2.0908E-07  2.0920E-07  -88.054
   144  204   3.7525   0.0000  -1.6261  0.25017   2.7200E-08 -2.1978E-07  2.2146E-07  -82.945
   145  204   3.7525   0.0000  -1.3759  0.25017  -5.4865E-08  9.4819E-08  1.0955E-07  120.055
   146  204   3.7525   0.0000  -1.1258  0.25017  -6.7186E-08  1.3224E-07  1.4833E-07  116.933
   147  204   3.7525   0.0000  -0.8756  0.25017  -4.1354E-09 -1.3156E-07  1.3162E-07  -91.800
   148  204   3.7525   0.0000  -0.6254  0.25017  -1.9955E-08 -1.3462E-07  1.3609E-07  -98.431
   149  204   3.7525   0.0000  -0.3753  0.25017  -9.7454E-08  1.3142E-07  1.6361E-07  126.560
   150  204   3.7525   0.0000  -0.1251  0.25017  -6.5384E-08  1.1597E-07  1.3313E-07  119.415
   151  204   3.7525   0.0000   0.1251  0.25017   5.8920E-08 -1.7266E-07  1.8243E-07  -71.157
   152  204   3.7525   0.0000   0.3753  0.25017   7.8680E-08 -1.7678E-07  1.9350E-07  -66.008
   153  204   3.7525   0.0000   0.6254  0.25017  -2.3877E-08  9.7965E-08  1.0083E-07  103.698
   154  204   3.7525   0.0000   0.8756  0.25017  -6.5523E-08  1.0482E-07  1.2361E-07  122.009
   155  204   3.7525   0.0000   1.1258  0.25017  -9.5526E-09 -1.3267E-07  1.3301E-07  -94.119
   156  204   3.7525   0.0000   1.3759  0.25017  -5.2715E-09 -6.4055E-08  6.4271E-08  -94.705
   157  204   3.7525   0.0000   1.6261  0.25017  -6.1659E-08  2.5625E-07  2.6356E-07  103.529
   158  204   3.7525   0.0000   1.8763  0.25017  -2.2050E-08  2.2515E-07  2.2623E-07   95.593
   159  204   3.7525   0.0000   2.1264  0.25017   9.6149E-08 -1.2926E-07  1.6110E-07  -53.357
   160  204   3.7525   0.0000   2.3766  0.25017   8.0826E-08 -1.6307E-07  1.8200E-07  -63.634
   161  301  -3.7525   2.5017  -2.3766  0.25017  -3.8945E-07  3.6532E-07  5.3397E-07  136.832
   162  301  -3.7525   2.5017  -2.1264  0.25017  -4.0796E-07  4.1248E-07  5.8015E-07  134.684
   163  301  -3.7525   2.5017  -1.8763  0.25017   3.0530E-07 -2.9105E-07  4.2180E-07  -43.631
   164  301  -3.7525   2.5017  -1.6261  0.25017   4.3049E-07 -3.9917E-07  5.8707E-07  -42.838
   165  301  -3.7525   2.5017  -1.3759  0.25017  -1.2907E-07  2.6383E-07  2.9371E-07  116.068
   166  301  -3.7525   2.5017  -1.1258  0.25017  -1.8961E-07  3.8036E-07  4.2500E-07  116.497
   167  301  -3.7525   2.5017  -0.8756  0.25017   3.2869E-07 -2.7948E-07  4.3145E-07  -40.373
   168  301  -3.7525   2.5017  -0.6254  0.25017   3.0548E-07 -4.4850E-07  5.4265E-07  -55.740
   169  301  -3.7525   2.5017  -0.3753  0.25017  -2.8062E-07  1.3963E-07  3.1344E-07  153.545
   170  301  -3.7525   2.5017  -0.1251  0.25017  -2.8188E-07  3.1520E-07  4.2286E-07  131.806
   171  301  -3.7525   2.5017   0.1251  0.25017   3.2917E-07 -1.4707E-07  3.6053E-07  -24.074
   172  301  -3.7525   2.5017   0.3753  0.25017   3.8547E-07 -1.6240E-07  4.1829E-07  -22.846
   173  301  -3.7525   2.5017   0.6254  0.25017  -1.8450E-07  3.5712E-07  4.0197E-07  117.322
   174  301  -3.7525   2.5017   0.8756  0.25017  -2.5451E-07  2.7907E-07  3.7769E-07  132.365
   175  301  -3.7525   2.5017   1.1258  0.25017   2.3857E-07 -3.9606E-07  4.6237E-07  -58.937
   176  301  -3.7525   2.5017   1.3759  0.25017   2.0005E-07 -4.1335E-07  4.5921E-07  -64.174
   177  301  -3.7525   2.5017   1.6261  0.25017  -3.7237E-07  2.5750E-07  4.5273E-07  145.336
   178  301  -3.7525   2.5017   1.8763  0.25017  -3.3087E-07  2.9884E-07  4.4585E-07  137.912
   179  301  -3.7525   2.5017   2.1264  0.25017   3.1598E-07 -3.6713E-07  4.8439E-07  -49.282
   180  301  -3.7525   2.5017   2.3766  0.25017   3.3506E-07 -3.8106E-07  5.0741E-07  -48.675
   181  302  -1.2508   2.5017  -2.3766  0.25017  -5.1317E-08 -1.8965E-07  1.9647E-07 -105.141
   182  302  -1.2508   2.5017  -2.1264  0.25017  -6.6817E-10  4.6004E-09  4.6486E-09   98.264
   183  302  -1.2508   2.5017  -1.8763  0.25017   7.0133E-08  4.4976E-07  4.5520E-07   81.137
   184  302  -1.2508   2.5017  -1.6261  0.25017  -1.9856E-08  2.0427E-07  2.0524E-07   95.552
   185  302  -1.2508   2.5017  -1.3759  0.25017  -3.0262E-08 -4.0140E-07  4.0254E-07  -94.311
   186  302  -1.2508   2.5017  -1.1258  0.25017   2.1514E-07 -3.3725E-07  4.0003E-07  -57.465
   187  302  -1.2508   2.5017  -0.8756  0.25017   3.3394E-07  2.0415E-07  3.9139E-07   31.439
   188  302  -1.2508   2.5017  -0.6254  0.25017   2.3038E-08  2.1243E-07  2.1368E-07   83.811
   189  302  -1.2508   2.5017  -0.3753  0.25017  -2.7555E-07 -2.1277E-07  3.4814E-07 -142.326
   190  302  -1.2508   2.5017  -0.1251  0.25017  -6.4428E-08 -1.4187E-07  1.5582E-07 -114.424
   191  302  -1.2508   2.5017   0.1251  0.25017   3.1991E-07  3.0942E-07  4.4506E-07   44.046
   192  302  -1.2508   2.5017   0.3753  0.25017   2.7336E-07  2.2383E-07  3.5331E-07   39.311
   193  302  -1.2508   2.5017   0.6254  0.25017  -6.3087E-08 -2.5860E-07  2.6618E-07 -103.710
   194  302  -1.2508   2.5017   0.8756  0.25017  -1.4783E-07 -1.8410E-07  2.3611E-07 -128.764
   195  302  -1.2508   2.5017   1.1258  0.25017   8.0690E-09  3.0582E-07  3.0592E-07   88.489
   196  302  -1.2508   2.5017   1.3759  0.25017   1.7511E-08  1.8991E-07  1.9072E-07   84.732
   197  302  -1.2508   2.5017   1.6261  0.25017  -1.0719E-07 -4.2721E-07  4.4046E-07 -104.085
   198  302  -1.2508   2.5017   1.8763  0.25017  -8.9307E-08 -4.2993E-07  4.3910E-07 -101.735
   199  302  -1.2508   2.5017   2.1264  0.25017   2.1178E-08  2.0194E-07  2.0305E-07   84.013
   200  302  -1.2508   2.5017   2.3766  0.25017   2.2240E-08  3.0039E-07  3.0121E-07   85.766
   201  303   1.2508   2.5017  -2.3766  0.25017  -4.0307E-07  3.6575E-07  5.4428E-07  137.779
   202  303   1.2508   2.5017  -2.1264  0.25017  -4.2344E-07  4.1194E-07  5.9076E-07  135.788
   203  303   1.2508   2.5017  -1.8763  0.25017   3.1530E-07 -2.9521E-07  4.3193E-07  -43.115
   204  303   1.2508   2.5017  -1.6261  0.25017   4.4544E-07 -4.0426E-07  6.0153E-07  -42.226
   205  303   1.2508   2.5017  -1.3759  0.25017  -1.3573E-07  2.6066E-07  2.9387E-07  117.506
   206  303   1.2508   2.5017  -1.1258  0.25017  -1.9882E-07  3.7614E-07  4.2545E-07  117.860
   207  303   1.2508   2.5017  -0.8756  0.25017   3.4207E-07 -2.8688E-07  4.4645E-07  -39.985
   208  303   1.2508   2.5017  -0.6254  0.25017   3.2138E-07 -4.5456E-07  5.5669E-07  -54.739
   209  303   1.2508   2.5017  -0.3753  0.25017  -2.8855E-07  1.3819E-07  3.1994E-07  154.409
   210  303   1.2508   2.5017  -0.1251  0.25017  -2.9469E-07  3.1426E-07  4.3081E-07  133.160
   211  303   1.2508   2.5017   0.1251  0.25017   3.3732E-07 -1.5048E-07  3.6936E-07  -24.042
   212  303   1.2508   2.5017   0.3753  0.25017   3.9561E-07 -1.6380E-07  4.2818E-07  -22.492
   213  303   1.2508   2.5017   0.6254  0.25017  -1.9804E-07  3.6071E-07  4.1150E-07  118.768
   214  303   1.2508   2.5017   0.8756  0.25017  -2.7223E-07  2.8266E-07  3.9243E-07  133.923
   215  303   1.2508   2.5017   1.1258  0.25017   2.4334E-07 -3.9633E-07  4.6507E-07  -58.451
   216  303   1.2508   2.5017   1.3759  0.25017   2.0866E-07 -4.1383E-07  4.6345E-07  -63.242
   217  303   1.2508   2.5017   1.6261  0.25017  -3.8598E-07  2.5918E-07  4.6493E-07  146.119
   218  303   1.2508   2.5017   1.8763  0.25017  -3.4699E-07  2.9843E-07  4.5767E-07  139.302
   219  303   1.2508   2.5017   2.1264  0.25017   3.2461E-07 -3.7129E-07  4.9318E-07  -48.838
   220  303   1.2508   2.5017   2.3766  0.25017   3.4775E-07 -3.8349E-07  5.1769E-07  -47.798
   221  304   3.7525   2.5017  -2.3766  0.25017   1.3747E-07  2.7303E-08  1.4015E-07   11.234
   222  304   3.7525   2.5017  -2.1264  0.25017   1.4752E-07  6.2598E-08  1.6025E-07   22.993
   223  304   3.7525   2.5017  -1.8763  0.25017  -7.6308E-08  3.8962E-08  8.5679E-08  152.951
   224  304   3.7525   2.5017  -1.6261  0.25017  -8.5344E-08  1.1283E-08  8.6087E-08  172.469
   225  304   3.7525   2.5017  -1.3759  0.25017   1.2325E-07  7.1373E-09  1.2345E-07    3.314
   226  304   3.7525   2.5017  -1.1258  0.25017   1.4698E-07 -2.5405E-08  1.4916E-07   -9.807
   227  304   3.7525   2.5017  -0.8756  0.25017  -1.3244E-08 -8.6880E-08  8.7883E-08  -98.667
   228  304   3.7525   2.5017  -0.6254  0.25017   1.0685E-08 -9.4191E-08  9.4795E-08  -83.528
   229  304   3.7525   2.5017  -0.3753  0.25017   1.8121E-07 -3.0388E-08  1.8374E-07   -9.520
   230  304   3.7525   2.5017  -0.1251  0.25017   1.1943E-07  1.6065E-08  1.2051E-07    7.661
   231  304   3.7525   2.5017   0.1251  0.25017  -1.2023E-07  1.0672E-08  1.2070E-07  174.927
   232  304   3.7525   2.5017   0.3753  0.25017  -1.2898E-07  2.4976E-08  1.3137E-07  169.040
   233  304   3.7525   2.5017   0.6254  0.25017   6.6153E-08  7.7280E-08  1.0173E-07   49.436
   234  304   3.7525   2.5017   0.8756  0.25017   7.1272E-08  7.5404E-08  1.0376E-07   46.613
   235  304   3.7525   2.5017   1.1258  0.25017  -9.0945E-08 -1.5610E-08  9.2275E-08 -170.260
   236  304   3.7525   2.5017   1.3759  0.25017  -5.3936E-08 -9.7630E-08  1.1154E-07 -118.919
   237  304   3.7525   2.5017   1.6261  0.25017   1.1913E-07 -1.0182E-07  1.5672E-07  -40.520
   238  304   3.7525   2.5017   1.8763  0.25017   3.9024E-08 -8.1730E-08  9.0569E-08  -64.476
   239  304   3.7525   2.5017   2.1264  0.25017  -2.0454E-07 -7.6729E-08  2.1846E-07 -159.438
   240  304   3.7525   2.5017   2.3766  0.25017  -1.5437E-07 -3.8232E-08  1.5903E-07 -166.090



                                        - - - POWER BUDGET - - -

                                           INPUT POWER   = 2.8549E-08 WATTS
                                           RADIATED POWER= 2.8549E-08 WATTS
                                           STRUCTURE LOSS= 0.0000E+00 WATTS
                                           NETWORK LOSS  = 0.0000E+00 WATTS
                                           EFFICIENCY    = 100.00 PERCENT



                                                - - - RADIATION PATTERNS - - -

  - - ANGLES - -       - DIRECTIVE GAINS -       - - - POLARIZATION - - -    - - - E(THETA) - - -    - - - E(PHI) - - -
  THETA     PHI        VERT.   HOR.    TOTAL      AXIAL     TILT   SENSE     MAGNITUDE    PHASE      MAGNITUDE    PHASE 
 DEGREES  DEGREES       DB      DB      DB        RATIO     DEG.              VOLTS/M    DEGREES      VOLTS/M    DEGREES
    0.00     0.00    -999.99 -999.99 -999.99    0.00000     0.00            0.00000E+00     0.00    0.00000E+00     0.00
    5.00     0.00      -5.65 -999.99   -5.65    0.00000     0.00  LINEAR    6.82828E-04    50.35    0.00000E+00     0.00
   10.00     0.00       0.14 -999.99    0.14    0.00000     0.00  LINEAR    1.32901E-03     0.10    0.00000E+00     0.00
   15.00     0.00       3.86 -999.99    3.86    0.00000     0.00  LINEAR    2.04041E-03   -33.51    0.00000E+00     0.00
   20.00     0.00       6.32 -999.99    6.32    0.00000     0.00  LINEAR    2.70815E-03   -63.38    0.00000E+00     0.00
   25.00     0.00       7.29 -999.99    7.29    0.00000     0.00  LINEAR    3.02740E-03   -97.28    0.00000E+00     0.00
   30.00     0.00       5.51 -999.99    5.51    0.00000     0.00  LINEAR    2.46778E-03  -137.81    0.00000E+00     0.00
   35.00     0.00       1.01 -999.99    1.01    0.00000     0.00  LINEAR    1.46996E-03  -174.31    0.00000E+00     0.00
   40.00     0.00     -20.10 -999.99  -20.10    0.00000     0.00  LINEAR    1.29353E-04  -170.41    0.00000E+00     0.00
   45.00     0.00      -3.90 -999.99   -3.90    0.00000     0.00  LINEAR    8.34595E-04   -50.81    0.00000E+00     0.00
   50.00     0.00      -6.87 -999.99   -6.87    0.00000     0.00  LINEAR    5.93502E-04   -80.09    0.00000E+00     0.00
   55.00     0.00      -4.85 -999.99   -4.85    0.00000     0.00  LINEAR    7.48962E-04    99.78    0.00000E+00     0.00
   60.00     0.00       1.49 -999.99    1.49    0.00000     0.00  LINEAR    1.55303E-03    70.56    0.00000E+00     0.00
   65.00     0.00      -2.61 -999.99   -2.61    0.00000     0.00  LINEAR    9.69324E-04    52.09    0.00000E+00     0.00
   70.00     0.00     -11.35 -999.99  -11.35    0.00000     0.00  LINEAR    3.54136E-04   162.39    0.00000E+00     0.00
   75.00     0.00      -6.60 -999.99   -6.60    0.00000     0.00  LINEAR    6.11847E-04   172.69    0.00000E+00     0.00
   80.00     0.00      -9.19 -999.99   -9.19    0.00000     0.00  LINEAR    4.54091E-04     9.34    0.00000E+00     0.00
   85.00     0.00      -0.66 -999.99   -0.66    0.00000     0.00  LINEAR    1.21195E-03     2.39    0.00000E+00     0.00
   90.00     0.00      -7.87 -999.99   -7.87    0.00000     0.00  LINEAR    5.28491E-04    31.36    0.00000E+00     0.00
    0.00     5.00    -999.99 -999.99 -999.99    0.00000     0.00            0.00000E+00     0.00    0.00000E+00     0.00
    5.00     5.00      -5.64 -999.99   -5.64    0.00000     0.00  LINEAR    6.83240E-04    50.52    0.00000E+00     0.00
   10.00     5.00       0.16 -999.99    0.16    0.00000     0.00  LINEAR    1.33330E-03     0.62    0.00000E+00     0.00
   15.00     5.00       3.90 -999.99    3.90    0.00000     0.00  LINEAR    2.04977E-03   -33.00    0.00000E+00     0.00
   20.00     5.00       6.30 -999.99    6.30    0.00000     0.00  LINEAR    2.70320E-03   -63.41    0.00000E+00     0.00
   25.00     5.00       7.23 -999.99    7.23    0.00000     0.00  LINEAR    3.00588E-03   -97.44    0.00000E+00     0.00
   30.00     5.00       5.57 -999.99    5.57    0.00000     0.00  LINEAR    2.48529E-03  -137.28    0.00000E+00     0.00
   35.00     5.00       0.96 -999.99    0.96    0.00000     0.00  LINEAR    1.46107E-03  -173.92    0.00000E+00     0.00
   40.00     5.00     -29.26 -999.99  -29.26    0.00000     0.00  LINEAR    4.50415E-05   169.60    0.00000E+00     0.00
   45.00     5.00      -3.58 -999.99   -3.58    0.00000     0.00  LINEAR    8.66690E-04   -49.56    0.00000E+00     0.00
   50.00     5.00      -7.26 -999.99   -7.26    0.00000     0.00  LINEAR    5.66937E-04   -79.12    0.00000E+00     0.00
   55.00     5.00      -5.24 -999.99   -5.24    0.00000     0.00  LINEAR    7.15550E-04    93.38    0.00000E+00     0.00
   60.00     5.00       1.34 -999.99    1.34    0.00000     0.00  LINEAR    1.52596E-03    67.45    0.00000E+00     0.00
   65.00     5.00      -2.76 -999.99   -2.76    0.00000     0.00  LINEAR    9.52384E-04    50.48    0.00000E+00     0.00
   70.00     5.00     -10.48 -999.99  -10.48    0.00000     0.00  LINEAR    3.91588E-04  -176.21    0.00000E+00     0.00
   75.00     5.00      -5.77 -999.99   -5.77    0.00000     0.00  LINEAR    6.73634E-04  -176.78    0.00000E+00     0.00
   80.00     5.00      -8.09 -999.99   -8.09    0.00000     0.00  LINEAR    5.15764E-04    18.48    0.00000E+00     0.00
   85.00     5.00       0.10 -999.99    0.10    0.00000     0.00  LINEAR    1.32354E-03     9.22    0.00000E+00     0.00
   90.00     5.00      -8.00 -999.99   -8.00    0.00000     0.00  LINEAR    5.21036E-04    31.95    0.00000E+00     0.00
    0.00    10.00    -999.99 -999.99 -999.99    0.00000     0.00            0.00000E+00     0.00    0.00000E+00     0.00
    5.00    10.00      -5.63 -999.99   -5.63    0.00000     0.00  LINEAR    6.84435E-04    51.02    0.00000E+00     0.00
   10.00    10.00       0.25 -999.99    0.25    0.00000     0.00  LINEAR    1.34592E-03     2.17    0.00000E+00     0.00
   15.00    10.00       4.02 -999.99    4.02    0.00000     0.00  LINEAR    2.07765E-03   -31.44    0.00000E+00     0.00
   20.00    10.00       6.28 -999.99    6.28    0.00000     0.00  LINEAR    2.69458E-03   -63.30    0.00000E+00     0.00
   25.00    10.00       7.07 -999.99    7.07    0.00000     0.00  LINEAR    2.95109E-03   -97.73    0.00000E+00     0.00
   30.00    10.00       5.70 -999.99    5.70    0.00000     0.00  LINEAR    2.52135E-03  -135.73    0.00000E+00     0.00
   35.00    10.00       0.84 -999.99    0.84    0.00000     0.00  LINEAR    1.44144E-03  -172.34    0.00000E+00     0.00
   40.00    10.00     -17.08 -999.99  -17.08    0.00000     0.00  LINEAR    1.83072E-04    31.19    0.00000E+00     0.00
   45.00    10.00      -2.63 -999.99   -2.63    0.00000     0.00  LINEAR    9.66246E-04   -44.21    0.00000E+00     0.00
   50.00    10.00      -7.93 -999.99   -7.93    0.00000     0.00  LINEAR    5.25337E-04   -74.94    0.00000E+00     0.00
   55.00    10.00      -5.24 -999.99   -5.24    0.00000     0.00  LINEAR    7.15410E-04    81.41    0.00000E+00     0.00
   60.00    10.00       1.28 -999.99    1.28    0.00000     0.00  LINEAR    1.51562E-03    63.00    0.00000E+00     0.00
   65.00    10.00      -2.85 -999.99   -2.85    0.00000     0.00  LINEAR    9.42074E-04    50.08    0.00000E+00     0.00
   70.00    10.00      -8.27 -999.99   -8.27    0.00000     0.00  LINEAR    5.04928E-04  -154.91    0.00000E+00     0.00
   75.00    10.00      -4.46 -999.99   -4.46    0.00000     0.00  LINEAR    7.82784E-04  -163.12    0.00000E+00     0.00
   80.00    10.00      -6.24 -999.99   -6.24    0.00000     0.00  LINEAR    6.38092E-04    30.92    0.00000E+00     0.00
   85.00    10.00       1.38 -999.99    1.38    0.00000     0.00  LINEAR    1.53445E-03    20.32    0.00000E+00     0.00
   90.00    10.00      -7.85 -999.99   -7.85    0.00000     0.00  LINEAR    5.30233E-04    35.87    0.00000E+00     0.00
    0.00    15.00    -999.99 -999.99 -999.99    0.00000     0.00            0.00000E+00     0.00    0.00000E+00     0.00
    5.00    15.00      -5.60 -999.99   -5.60    0.00000     0.00  LINEAR    6.86291E-04    51.85    0.00000E+00     0.00
   10.00    15.00       0.37 -999.99    0.37    0.00000     0.00  LINEAR    1.36594E-03     4.64    0.00000E+00     0.00
   15.00    15.00       4.21 -999.99    4.21    0.00000     0.00  LINEAR    2.12331E-03   -28.71    0.00000E+00     0.00
   20.00    15.00       6.28 -999.99    6.28    0.00000     0.00  LINEAR    2.69608E-03   -62.52    0.00000E+00     0.00
   25.00    15.00       6.88 -999.99    6.88    0.00000     0.00  LINEAR    2.88887E-03   -97.54    0.00000E+00     0.00
   30.00    15.00       5.77 -999.99    5.77    0.00000     0.00  LINEAR    2.54213E-03  -133.09    0.00000E+00     0.00
   35.00    15.00       0.75 -999.99    0.75    0.00000     0.00  LINEAR    1.42661E-03  -168.68    0.00000E+00     0.00
   40.00    15.00     -10.30 -999.99  -10.30    0.00000     0.00  LINEAR    3.99792E-04    31.47    0.00000E+00     0.00
   45.00    15.00      -1.46 -999.99   -1.46    0.00000     0.00  LINEAR    1.10586E-03   -34.38    0.00000E+00     0.00
   50.00    15.00      -7.72 -999.99   -7.72    0.00000     0.00  LINEAR    5.37968E-04   -65.67    0.00000E+00     0.00
   55.00    15.00      -4.67 -999.99   -4.67    0.00000     0.00  LINEAR    7.63860E-04    82.19    0.00000E+00     0.00
   60.00    15.00       1.49 -999.99    1.49    0.00000     0.00  LINEAR    1.55383E-03    68.30    0.00000E+00     0.00
   65.00    15.00      -2.64 -999.99   -2.64    0.00000     0.00  LINEAR    9.64980E-04    59.25    0.00000E+00     0.00
   70.00    15.00      -8.74 -999.99   -8.74    0.00000     0.00  LINEAR    4.78352E-04  -155.06    0.00000E+00     0.00
   75.00    15.00      -4.93 -999.99   -4.93    0.00000     0.00  LINEAR    7.41413E-04  -158.06    0.00000E+00     0.00
   80.00    15.00      -6.34 -999.99   -6.34    0.00000     0.00  LINEAR    6.30713E-04    35.78    0.00000E+00     0.00
   85.00    15.00       1.22 -999.99    1.22    0.00000     0.00  LINEAR    1.50575E-03    26.64    0.00000E+00     0.00
   90.00    15.00      -7.55 -999.99   -7.55    0.00000     0.00  LINEAR    5.48464E-04    44.86    0.00000E+00     0.00
    0.00    20.00    -999.99 -999.99 -999.99    0.00000     0.00            0.00000E+00     0.00    0.00000E+00     0.00
    5.00    20.00      -5.57 -999.99   -5.57    0.00000     0.00  LINEAR    6.88618E-04    52.98    0.00000E+00     0.00
   10.00    20.00       0.54 -999.99    0.54    0.00000     0.00  LINEAR    1.39166E-03     7.87    0.00000E+00     0.00
   15.00    20.00       4.46 -999.99    4.46    0.00000     0.00  LINEAR    2.18522E-03   -24.76    0.00000E+00     0.00
   20.00    20.00       6.35 -999.99    6.35    0.00000     0.00  LINEAR    2.71855E-03   -60.33    0.00000E+00     0.00
   25.00    20.00       6.76 -999.99    6.76    0.00000     0.00  LINEAR    2.84908E-03   -95.83    0.00000E+00     0.00
   30.00    20.00       5.72 -999.99    5.72    0.00000     0.00  LINEAR    2.52885E-03  -128.81    0.00000E+00     0.00
   35.00    20.00       0.76 -999.99    0.76    0.00000     0.00  LINEAR    1.42723E-03  -162.09    0.00000E+00     0.00
   40.00    20.00      -9.29 -999.99   -9.29    0.00000     0.00  LINEAR    4.48823E-04    36.37    0.00000E+00     0.00
   45.00    20.00      -0.94 -999.99   -0.94    0.00000     0.00  LINEAR    1.17436E-03   -23.85    0.00000E+00     0.00
   50.00    20.00      -6.83 -999.99   -6.83    0.00000     0.00  LINEAR    5.96077E-04   -54.27    0.00000E+00     0.00
   55.00    20.00      -4.99 -999.99   -4.99    0.00000     0.00  LINEAR    7.36272E-04   100.05    0.00000E+00     0.00
   60.00    20.00       1.48 -999.99    1.48    0.00000     0.00  LINEAR    1.55216E-03    87.14    0.00000E+00     0.00
   65.00    20.00      -3.06 -999.99   -3.06    0.00000     0.00  LINEAR    9.19914E-04    79.73    0.00000E+00     0.00
   70.00    20.00      -9.36 -999.99   -9.36    0.00000     0.00  LINEAR    4.45187E-04  -150.35    0.00000E+00     0.00
   75.00    20.00      -6.62 -999.99   -6.62    0.00000     0.00  LINEAR    6.10461E-04  -149.35    0.00000E+00     0.00
   80.00    20.00      -7.40 -999.99   -7.40    0.00000     0.00  LINEAR    5.58347E-04    38.96    0.00000E+00     0.00
   85.00    20.00       0.00 -999.99    0.00    0.00000     0.00  LINEAR    1.30774E-03    33.29    0.00000E+00     0.00
   90.00    20.00      -7.52 -999.99   -7.52    0.00000     0.00  LINEAR    5.50480E-04    58.35    0.00000E+00     0.00
    0.00    25.00    -999.99 -999.99 -999.99    0.00000     0.00            0.00000E+00     0.00    0.00000E+00     0.00
    5.00    25.00      -5.54 -999.99   -5.54    0.00000     0.00  LINEAR    6.91184E-04    54.40    0.00000E+00     0.00
   10.00    25.00       0.71 -999.99    0.71    0.00000     0.00  LINEAR    1.42038E-03    11.70    0.00000E+00     0.00
   15.00    25.00       4.75 -999.99    4.75    0.00000     0.00  LINEAR    2.26040E-03   -19.63    0.00000E+00     0.00
   20.00    25.00       6.49 -999.99    6.49    0.00000     0.00  LINEAR    2.76309E-03   -56.08    0.00000E+00     0.00
   25.00    25.00       6.76 -999.99    6.76    0.00000     0.00  LINEAR    2.84843E-03   -91.53    0.00000E+00     0.00
   30.00    25.00       5.61 -999.99    5.61    0.00000     0.00  LINEAR    2.49629E-03  -121.86    0.00000E+00     0.00
   35.00    25.00       0.81 -999.99    0.81    0.00000     0.00  LINEAR    1.43673E-03  -152.31    0.00000E+00     0.00
   40.00    25.00     -13.71 -999.99  -13.71    0.00000     0.00  LINEAR    2.70035E-04    43.56    0.00000E+00     0.00
   45.00    25.00      -1.89 -999.99   -1.89    0.00000     0.00  LINEAR    1.05297E-03   -16.98    0.00000E+00     0.00
   50.00    25.00      -6.98 -999.99   -6.98    0.00000     0.00  LINEAR    5.85966E-04   -44.05    0.00000E+00     0.00
   55.00    25.00      -5.60 -999.99   -5.60    0.00000     0.00  LINEAR    6.86296E-04   125.70    0.00000E+00     0.00
   60.00    25.00       1.25 -999.99    1.25    0.00000     0.00  LINEAR    1.51024E-03   111.35    0.00000E+00     0.00
   65.00    25.00      -4.14 -999.99   -4.14    0.00000     0.00  LINEAR    8.12018E-04   109.28    0.00000E+00     0.00
   70.00    25.00      -6.81 -999.99   -6.81    0.00000     0.00  LINEAR    5.97476E-04  -126.98    0.00000E+00     0.00
   75.00    25.00      -6.80 -999.99   -6.80    0.00000     0.00  LINEAR    5.97955E-04  -124.80    0.00000E+00     0.00
   80.00    25.00      -5.85 -999.99   -5.85    0.00000     0.00  LINEAR    6.67332E-04    50.49    0.00000E+00     0.00
   85.00    25.00       0.69 -999.99    0.69    0.00000     0.00  LINEAR    1.41598E-03    49.30    0.00000E+00     0.00
   90.00    25.00      -6.66 -999.99   -6.66    0.00000     0.00  LINEAR    6.07595E-04    70.91    0.00000E+00     0.00
    0.00    30.00    -999.99 -999.99 -999.99    0.00000     0.00            0.00000E+00     0.00    0.00000E+00     0.00
    5.00    30.00      -5.51 -999.99   -5.51    0.00000     0.00  LINEAR    6.93741E-04    56.08    0.00000E+00     0.00
   10.00    30.00       0.88 -999.99    0.88    0.00000     0.00  LINEAR    1.44849E-03    15.94    0.00000E+00     0.00
   15.00    30.00       5.06 -999.99    5.06    0.00000     0.00  LINEAR    2.34322E-03   -13.54    0.00000E+00     0.00
   20.00    30.00       6.68 -999.99    6.68    0.00000     0.00  LINEAR    2.82306E-03   -49.51    0.00000E+00     0.00
   25.00    30.00       6.85 -999.99    6.85    0.00000     0.00  LINEAR    2.88047E-03   -84.14    0.00000E+00     0.00
   30.00    30.00       5.55 -999.99    5.55    0.00000     0.00  LINEAR    2.47978E-03  -111.50    0.00000E+00     0.00
   35.00    30.00       0.80 -999.99    0.80    0.00000     0.00  LINEAR    1.43503E-03  -139.46    0.00000E+00     0.00
   40.00    30.00     -38.47 -999.99  -38.47    0.00000     0.00  LINEAR    1.56083E-05    87.37    0.00000E+00     0.00
   45.00    30.00      -3.92 -999.99   -3.92    0.00000     0.00  LINEAR    8.32784E-04   -14.90    0.00000E+00     0.00
   50.00    30.00      -8.40 -999.99   -8.40    0.00000     0.00  LINEAR    4.97618E-04   -32.62    0.00000E+00     0.00
   55.00    30.00      -5.56 -999.99   -5.56    0.00000     0.00  LINEAR    6.89983E-04   138.19    0.00000E+00     0.00
   60.00    30.00       1.18 -999.99    1.18    0.00000     0.00  LINEAR    1.49803E-03   124.74    0.00000E+00     0.00
   65.00    30.00      -3.80 -999.99   -3.80    0.00000     0.00  LINEAR    8.44802E-04   121.96    0.00000E+00     0.00
   70.00    30.00      -7.22 -999.99   -7.22    0.00000     0.00  LINEAR    5.69697E-04  -115.89    0.00000E+00     0.00
   75.00    30.00      -6.48 -999.99   -6.48    0.00000     0.00  LINEAR    6.20403E-04  -109.65    0.00000E+00     0.00
   80.00    30.00      -6.04 -999.99   -6.04    0.00000     0.00  LINEAR    6.52645E-04    64.64    0.00000E+00     0.00
   85.00    30.00       0.85 -999.99    0.85    0.00000     0.00  LINEAR    1.44306E-03    64.87    0.00000E+00     0.00
   90.00    30.00      -6.81 -999.99   -6.81    0.00000     0.00  LINEAR    5.97094E-04    84.72    0.00000E+00     0.00
    0.00    35.00    -999.99 -999.99 -999.99    0.00000     0.00            0.00000E+00     0.00    0.00000E+00     0.00
    5.00    35.00      -5.48 -999.99   -5.48    0.00000     0.00  LINEAR    6.96058E-04    57.99    0.00000E+00     0.00
   10.00    35.00       1.02 -999.99    1.02    0.00000     0.00  LINEAR    1.47178E-03    20.44    0.00000E+00     0.00
   15.00    35.00       5.36 -999.99    5.36    0.00000     0.00  LINEAR    2.42395E-03    -6.85    0.00000E+00     0.00
   20.00    35.00       6.88 -999.99    6.88    0.00000     0.00  LINEAR    2.89017E-03   -40.95    0.00000E+00     0.00
   25.00    35.00       6.98 -999.99    6.98    0.00000     0.00  LINEAR    2.92124E-03   -73.95    0.00000E+00     0.00
   30.00    35.00       5.62 -999.99    5.62    0.00000     0.00  LINEAR    2.49785E-03   -98.24    0.00000E+00     0.00
   35.00    35.00       0.68 -999.99    0.68    0.00000     0.00  LINEAR    1.41509E-03  -123.88    0.00000E+00     0.00
   40.00    35.00     -22.41 -999.99  -22.41    0.00000     0.00  LINEAR    9.91386E-05  -129.53    0.00000E+00     0.00
   45.00    35.00      -4.89 -999.99   -4.89    0.00000     0.00  LINEAR    7.44922E-04    -5.53    0.00000E+00     0.00
   50.00    35.00      -7.99 -999.99   -7.99    0.00000     0.00  LINEAR    5.21579E-04   -14.52    0.00000E+00     0.00
   55.00    35.00      -5.69 -999.99   -5.69    0.00000     0.00  LINEAR    6.79582E-04   143.00    0.00000E+00     0.00
   60.00    35.00       1.39 -999.99    1.39    0.00000     0.00  LINEAR    1.53505E-03   130.16    0.00000E+00     0.00
   65.00    35.00      -2.70 -999.99   -2.70    0.00000     0.00  LINEAR    9.58697E-04   117.51    0.00000E+00     0.00
   70.00    35.00     -12.06 -999.99  -12.06    0.00000     0.00  LINEAR    3.26565E-04  -100.53    0.00000E+00     0.00
   75.00    35.00      -6.83 -999.99   -6.83    0.00000     0.00  LINEAR    5.96054E-04  -102.26    0.00000E+00     0.00
   80.00    35.00      -9.82 -999.99   -9.82    0.00000     0.00  LINEAR    4.22294E-04    98.37    0.00000E+00     0.00
   85.00    35.00      -1.31 -999.99   -1.31    0.00000     0.00  LINEAR    1.12560E-03    88.62    0.00000E+00     0.00
   90.00    35.00      -8.28 -999.99   -8.28    0.00000     0.00  LINEAR    5.04588E-04   116.72    0.00000E+00     0.00
    0.00    40.00    -999.99 -999.99 -999.99    0.00000     0.00            0.00000E+00     0.00    0.00000E+00     0.00
    5.00    40.00      -5.46 -999.99   -5.46    0.00000     0.00  LINEAR    6.97946E-04    60.11    0.00000E+00     0.00
   10.00    40.00       1.11 -999.99    1.11    0.00000     0.00  LINEAR    1.48622E-03    25.09    0.00000E+00     0.00
   15.00    40.00       5.58 -999.99    5.58    0.00000     0.00  LINEAR    2.48855E-03     0.07    0.00000E+00     0.00
   20.00    40.00       7.08 -999.99    7.08    0.00000     0.00  LINEAR    2.95497E-03   -31.20    0.00000E+00     0.00
   25.00    40.00       7.05 -999.99    7.05    0.00000     0.00  LINEAR    2.94691E-03   -61.96    0.00000E+00     0.00
   30.00    40.00       5.71 -999.99    5.71    0.00000     0.00  LINEAR    2.52442E-03   -83.72    0.00000E+00     0.00
   35.00    40.00       0.57 -999.99    0.57    0.00000     0.00  LINEAR    1.39670E-03  -106.80    0.00000E+00     0.00
   40.00    40.00     -30.53 -999.99  -30.53    0.00000     0.00  LINEAR    3.89389E-05  -139.19    0.00000E+00     0.00
   45.00    40.00      -3.83 -999.99   -3.83    0.00000     0.00  LINEAR    8.41434E-04    19.28    0.00000E+00     0.00
   50.00    40.00      -5.42 -999.99   -5.42    0.00000     0.00  LINEAR    7.00812E-04     5.94    0.00000E+00     0.00
   55.00    40.00      -6.42 -999.99   -6.42    0.00000     0.00  LINEAR    6.24790E-04   168.35    0.00000E+00     0.00
   60.00    40.00       1.64 -999.99    1.64    0.00000     0.00  LINEAR    1.58094E-03   153.07    0.00000E+00     0.00
   65.00    40.00      -2.86 -999.99   -2.86    0.00000     0.00  LINEAR    9.41223E-04   138.76    0.00000E+00     0.00
   70.00    40.00      -9.90 -999.99   -9.90    0.00000     0.00  LINEAR    4.18498E-04   -72.08    0.00000E+00     0.00
   75.00    40.00      -6.07 -999.99   -6.07    0.00000     0.00  LINEAR    6.50210E-04   -79.27    0.00000E+00     0.00
   80.00    40.00      -7.75 -999.99   -7.75    0.00000     0.00  LINEAR    5.35902E-04   122.91    0.00000E+00     0.00
   85.00    40.00      -0.03 -999.99   -0.03    0.00000     0.00  LINEAR    1.30350E-03   113.81    0.00000E+00     0.00
   90.00    40.00      -7.24 -999.99   -7.24    0.00000     0.00  LINEAR    5.68611E-04   139.77    0.00000E+00     0.00
    0.00    45.00    -999.99 -999.99 -999.99    0.00000     0.00            0.00000E+00     0.00    0.00000E+00     0.00
    5.00    45.00      -5.44 -999.99   -5.44    0.00000     0.00  LINEAR    6.99288E-04    62.41    0.00000E+00     0.00
   10.00    45.00       1.12 -999.99    1.12    0.00000     0.00  LINEAR    1.48882E-03    29.83    0.00000E+00     0.00
   15.00    45.00       5.70 -999.99    5.70    0.00000     0.00  LINEAR    2.52145E-03     6.95    0.00000E+00     0.00
   20.00    45.00       7.21 -999.99    7.21    0.00000     0.00  LINEAR    3.00214E-03   -21.20    0.00000E+00     0.00
   25.00    45.00       7.06 -999.99    7.06    0.00000     0.00  LINEAR    2.94965E-03   -49.41    0.00000E+00     0.00
   30.00    45.00       5.69 -999.99    5.69    0.00000     0.00  LINEAR    2.51957E-03   -69.38    0.00000E+00     0.00
   35.00    45.00       0.56 -999.99    0.56    0.00000     0.00  LINEAR    1.39576E-03   -90.31    0.00000E+00     0.00
   40.00    45.00     -33.16 -999.99  -33.16    0.00000     0.00  LINEAR    2.87481E-05   117.57    0.00000E+00     0.00
   45.00    45.00      -2.99 -999.99   -2.99    0.00000     0.00  LINEAR    9.27069E-04    43.47    0.00000E+00     0.00
   50.00    45.00      -4.44 -999.99   -4.44    0.00000     0.00  LINEAR    7.84305E-04    28.10    0.00000E+00     0.00
   55.00    45.00      -5.59 -999.99   -5.59    0.00000     0.00  LINEAR    6.87656E-04  -164.92    0.00000E+00     0.00
   60.00    45.00       2.68 -999.99    2.68    0.00000     0.00  LINEAR    1.78169E-03  -179.20    0.00000E+00     0.00
   65.00    45.00      -1.74 -999.99   -1.74    0.00000     0.00  LINEAR    1.07105E-03   170.04    0.00000E+00     0.00
   70.00    45.00      -9.48 -999.99   -9.48    0.00000     0.00  LINEAR    4.39209E-04   -49.89    0.00000E+00     0.00
   75.00    45.00      -5.93 -999.99   -5.93    0.00000     0.00  LINEAR    6.60845E-04   -47.69    0.00000E+00     0.00
   80.00    45.00      -6.75 -999.99   -6.75    0.00000     0.00  LINEAR    6.01731E-04   140.14    0.00000E+00     0.00
   85.00    45.00       0.76 -999.99    0.76    0.00000     0.00  LINEAR    1.42759E-03   137.26    0.00000E+00     0.00
   90.00    45.00      -6.87 -999.99   -6.87    0.00000     0.00  LINEAR    5.93075E-04   158.70    0.00000E+00     0.00
    0.00    50.00    -999.99 -999.99 -999.99    0.00000     0.00            0.00000E+00     0.00    0.00000E+00     0.00
    5.00    50.00      -5.43 -999.99   -5.43    0.00000     0.00  LINEAR    7.00048E-04    64.88    0.00000E+00     0.00
   10.00    50.00       1.06 -999.99    1.06    0.00000     0.00  LINEAR    1.47850E-03    34.66    0.00000E+00     0.00
   15.00    50.00       5.66 -999.99    5.66    0.00000     0.00  LINEAR    2.51111E-03    13.71    0.00000E+00     0.00
   20.00    50.00       7.24 -999.99    7.24    0.00000     0.00  LINEAR    3.01156E-03   -11.59    0.00000E+00     0.00
   25.00    50.00       7.02 -999.99    7.02    0.00000     0.00  LINEAR    2.93563E-03   -37.42    0.00000E+00     0.00
   30.00    50.00       5.58 -999.99    5.58    0.00000     0.00  LINEAR    2.48758E-03   -55.86    0.00000E+00     0.00
   35.00    50.00       0.62 -999.99    0.62    0.00000     0.00  LINEAR    1.40556E-03   -75.27    0.00000E+00     0.00
   40.00    50.00     -37.20 -999.99  -37.20    0.00000     0.00  LINEAR    1.80703E-05   -70.58    0.00000E+00     0.00
   45.00    50.00      -3.82 -999.99   -3.82    0.00000     0.00  LINEAR    8.42636E-04    61.73    0.00000E+00     0.00
   50.00    50.00      -5.61 -999.99   -5.61    0.00000     0.00  LINEAR    6.85954E-04    52.11    0.00000E+00     0.00
   55.00    50.00      -5.71 -999.99   -5.71    0.00000     0.00  LINEAR    6.77943E-04  -155.47    0.00000E+00     0.00
   60.00    50.00       2.40 -999.99    2.40    0.00000     0.00  LINEAR    1.72520E-03  -162.34    0.00000E+00     0.00
[...]
   40.00   315.00     -33.16 -999.99  -33.16    0.00000     0.00  LINEAR    2.87481E-05   117.57    0.00000E+00     0.00
   45.00   315.00      -2.99 -999.99   -2.99    0.00000     0.00  LINEAR    9.27069E-04    43.47    0.00000E+00     0.00
   50.00   315.00      -4.44 -999.99   -4.44    0.00000     0.00  LINEAR    7.84305E-04    28.10    0.00000E+00     0.00
   55.00   315.00      -5.59 -999.99   -5.59    0.00000     0.00  LINEAR    6.87656E-04  -164.92    0.00000E+00     0.00
   60.00   315.00       2.68 -999.99    2.68    0.00000     0.00  LINEAR    1.78169E-03  -179.20    0.00000E+00     0.00
   65.00   315.00      -1.74 -999.99   -1.74    0.00000     0.00  LINEAR    1.07105E-03   170.04    0.00000E+00     0.00
   70.00   315.00      -9.48 -999.99   -9.48    0.00000     0.00  LINEAR    4.39209E-04   -49.89    0.00000E+00     0.00
   75.00   315.00      -5.93 -999.99   -5.93    0.00000     0.00  LINEAR    6.60845E-04   -47.69    0.00000E+00     0.00
   80.00   315.00      -6.75 -999.99   -6.75    0.00000     0.00  LINEAR    6.01731E-04   140.14    0.00000E+00     0.00
   85.00   315.00       0.76 -999.99    0.76    0.00000     0.00  LINEAR    1.42759E-03   137.26    0.00000E+00     0.00
   90.00   315.00      -6.87 -999.99   -6.87    0.00000     0.00  LINEAR    5.93075E-04   158.70    0.00000E+00     0.00
    0.00   320.00    -999.99 -999.99 -999.99    0.00000     0.00            0.00000E+00     0.00    0.00000E+00     0.00
    5.00   320.00      -5.46 -999.99   -5.46    0.00000     0.00  LINEAR    6.97946E-04    60.11    0.00000E+00     0.00
   10.00   320.00       1.11 -999.99    1.11    0.00000     0.00  LINEAR    1.48622E-03    25.09    0.00000E+00     0.00
   15.00   320.00       5.58 -999.99    5.58    0.00000     0.00  LINEAR    2.48855E-03     0.07    0.00000E+00     0.00
   20.00   320.00       7.08 -999.99    7.08    0.00000     0.00  LINEAR    2.95497E-03   -31.20    0.00000E+00     0.00
   25.00   320.00       7.05 -999.99    7.05    0.00000     0.00  LINEAR    2.94691E-03   -61.96    0.00000E+00     0.00
   30.00   320.00       5.71 -999.99    5.71    0.00000     0.00  LINEAR    2.52442E-03   -83.72    0.00000E+00     0.00
   35.00   320.00       0.57 -999.99    0.57    0.00000     0.00  LINEAR    1.39670E-03  -106.80    0.00000E+00     0.00
   40.00   320.00     -30.53 -999.99  -30.53    0.00000     0.00  LINEAR    3.89389E-05  -139.19    0.00000E+00     0.00
   45.00   320.00      -3.83 -999.99   -3.83    0.00000     0.00  LINEAR    8.41434E-04    19.28    0.00000E+00     0.00
   50.00   320.00      -5.42 -999.99   -5.42    0.00000     0.00  LINEAR    7.00812E-04     5.94    0.00000E+00     0.00
   55.00   320.00      -6.42 -999.99   -6.42    0.00000     0.00  LINEAR    6.24790E-04   168.35    0.00000E+00     0.00
   60.00   320.00       1.64 -999.99    1.64    0.00000     0.00  LINEAR    1.58094E-03   153.07    0.00000E+00     0.00
   65.00   320.00      -2.86 -999.99   -2.86    0.00000     0.00  LINEAR    9.41223E-04   138.76    0.00000E+00     0.00
   70.00   320.00      -9.90 -999.99   -9.90    0.00000     0.00  LINEAR    4.18498E-04   -72.08    0.00000E+00     0.00
   75.00   320.00      -6.07 -999.99   -6.07    0.00000     0.00  LINEAR    6.50210E-04   -79.27    0.00000E+00     0.00
   80.00   320.00      -7.75 -999.99   -7.75    0.00000     0.00  LINEAR    5.35902E-04   122.91    0.00000E+00     0.00
   85.00   320.00      -0.03 -999.99   -0.03    0.00000     0.00  LINEAR    1.30350E-03   113.81    0.00000E+00     0.00
   90.00   320.00      -7.24 -999.99   -7.24    0.00000     0.00  LINEAR    5.68611E-04   139.77    0.00000E+00     0.00
    0.00   325.00    -999.99 -999.99 -999.99    0.00000     0.00            0.00000E+00     0.00    0.00000E+00     0.00
    5.00   325.00      -5.48 -999.99   -5.48    0.00000     0.00  LINEAR    6.96058E-04    57.99    0.00000E+00     0.00
   10.00   325.00       1.02 -999.99    1.02    0.00000     0.00  LINEAR    1.47178E-03    20.44    0.00000E+00     0.00
   15.00   325.00       5.36 -999.99    5.36    0.00000     0.00  LINEAR    2.42395E-03    -6.85    0.00000E+00     0.00
   20.00   325.00       6.88 -999.99    6.88    0.00000     0.00  LINEAR    2.89017E-03   -40.95    0.00000E+00     0.00
   25.00   325.00       6.98 -999.99    6.98    0.00000     0.00  LINEAR    2.92124E-03   -73.95    0.00000E+00     0.00
   30.00   325.00       5.62 -999.99    5.62    0.00000     0.00  LINEAR    2.49785E-03   -98.24    0.00000E+00     0.00
   35.00   325.00       0.68 -999.99    0.68    0.00000     0.00  LINEAR    1.41509E-03  -123.88    0.00000E+00     0.00
   40.00   325.00     -22.41 -999.99  -22.41    0.00000     0.00  LINEAR    9.91386E-05  -129.53    0.00000E+00     0.00
   45.00   325.00      -4.89 -999.99   -4.89    0.00000     0.00  LINEAR    7.44922E-04    -5.53    0.00000E+00     0.00
   50.00   325.00      -7.99 -999.99   -7.99    0.00000     0.00  LINEAR    5.21579E-04   -14.52    0.00000E+00     0.00
   55.00   325.00      -5.69 -999.99   -5.69    0.00000     0.00  LINEAR    6.79582E-04   143.00    0.00000E+00     0.00
   60.00   325.00       1.39 -999.99    1.39    0.00000     0.00  LINEAR    1.53505E-03   130.16    0.00000E+00     0.00
   65.00   325.00      -2.70 -999.99   -2.70    0.00000     0.00  LINEAR    9.58697E-04   117.51    0.00000E+00     0.00
   70.00   325.00     -12.06 -999.99  -12.06    0.00000     0.00  LINEAR    3.26565E-04  -100.53    0.00000E+00     0.00
   75.00   325.00      -6.83 -999.99   -6.83    0.00000     0.00  LINEAR    5.96054E-04  -102.26    0.00000E+00     0.00
   80.00   325.00      -9.82 -999.99   -9.82    0.00000     0.00  LINEAR    4.22294E-04    98.37    0.00000E+00     0.00
   85.00   325.00      -1.31 -999.99   -1.31    0.00000     0.00  LINEAR    1.12560E-03    88.62    0.00000E+00     0.00
   90.00   325.00      -8.28 -999.99   -8.28    0.00000     0.00  LINEAR    5.04588E-04   116.72    0.00000E+00     0.00
    0.00   330.00    -999.99 -999.99 -999.99    0.00000     0.00            0.00000E+00     0.00    0.00000E+00     0.00
    5.00   330.00      -5.51 -999.99   -5.51    0.00000     0.00  LINEAR    6.93741E-04    56.08    0.00000E+00     0.00
   10.00   330.00       0.88 -999.99    0.88    0.00000     0.00  LINEAR    1.44849E-03    15.94    0.00000E+00     0.00
   15.00   330.00       5.06 -999.99    5.06    0.00000     0.00  LINEAR    2.34322E-03   -13.54    0.00000E+00     0.00
   20.00   330.00       6.68 -999.99    6.68    0.00000     0.00  LINEAR    2.82306E-03   -49.51    0.00000E+00     0.00
   25.00   330.00       6.85 -999.99    6.85    0.00000     0.00  LINEAR    2.88047E-03   -84.14    0.00000E+00     0.00
   30.00   330.00       5.55 -999.99    5.55    0.00000     0.00  LINEAR    2.47978E-03  -111.50    0.00000E+00     0.00
   35.00   330.00       0.80 -999.99    0.80    0.00000     0.00  LINEAR    1.43503E-03  -139.46    0.00000E+00     0.00
   40.00   330.00     -38.47 -999.99  -38.47    0.00000     0.00  LINEAR    1.56083E-05    87.37    0.00000E+00     0.00
   45.00   330.00      -3.92 -999.99   -3.92    0.00000     0.00  LINEAR    8.32784E-04   -14.90    0.00000E+00     0.00
   50.00   330.00      -8.40 -999.99   -8.40    0.00000     0.00  LINEAR    4.97618E-04   -32.62    0.00000E+00     0.00
   55.00   330.00      -5.56 -999.99   -5.56    0.00000     0.00  LINEAR    6.89983E-04   138.19    0.00000E+00     0.00
   60.00   330.00       1.18 -999.99    1.18    0.00000     0.00  LINEAR    1.49803E-03   124.74    0.00000E+00     0.00
   65.00   330.00      -3.80 -999.99   -3.80    0.00000     0.00  LINEAR    8.44802E-04   121.96    0.00000E+00     0.00
   70.00   330.00      -7.22 -999.99   -7.22    0.00000     0.00  LINEAR    5.69697E-04  -115.89    0.00000E+00     0.00
   75.00   330.00      -6.48 -999.99   -6.48    0.00000     0.00  LINEAR    6.20403E-04  -109.65    0.00000E+00     0.00
   80.00   330.00      -6.04 -999.99   -6.04    0.00000     0.00  LINEAR    6.52645E-04    64.64    0.00000E+00     0.00
   85.00   330.00       0.85 -999.99    0.85    0.00000     0.00  LINEAR    1.44306E-03    64.87    0.00000E+00     0.00
   90.00   330.00      -6.81 -999.99   -6.81    0.00000     0.00  LINEAR    5.97094E-04    84.72    0.00000E+00     0.00
    0.00   335.00    -999.99 -999.99 -999.99    0.00000     0.00            0.00000E+00     0.00    0.00000E+00     0.00
    5.00   335.00      -5.54 -999.99   -5.54    0.00000     0.00  LINEAR    6.91184E-04    54.40    0.00000E+00     0.00
   10.00   335.00       0.71 -999.99    0.71    0.00000     0.00  LINEAR    1.42038E-03    11.70    0.00000E+00     0.00
   15.00   335.00       4.75 -999.99    4.75    0.00000     0.00  LINEAR    2.26040E-03   -19.63    0.00000E+00     0.00
   20.00   335.00       6.49 -999.99    6.49    0.00000     0.00  LINEAR    2.76309E-03   -56.08    0.00000E+00     0.00
   25.00   335.00       6.76 -999.99    6.76    0.00000     0.00  LINEAR    2.84843E-03   -91.53    0.00000E+00     0.00
   30.00   335.00       5.61 -999.99    5.61    0.00000     0.00  LINEAR    2.49629E-03  -121.86    0.00000E+00     0.00
   35.00   335.00       0.81 -999.99    0.81    0.00000     0.00  LINEAR    1.43673E-03  -152.31    0.00000E+00     0.00
   40.00   335.00     -13.71 -999.99  -13.71    0.00000     0.00  LINEAR    2.70035E-04    43.56    0.00000E+00     0.00
   45.00   335.00      -1.89 -999.99   -1.89    0.00000     0.00  LINEAR    1.05297E-03   -16.98    0.00000E+00     0.00
   50.00   335.00      -6.98 -999.99   -6.98    0.00000     0.00  LINEAR    5.85966E-04   -44.05    0.00000E+00     0.00
   55.00   335.00      -5.60 -999.99   -5.60    0.00000     0.00  LINEAR    6.86296E-04   125.70    0.00000E+00     0.00
   60.00   335.00       1.25 -999.99    1.25    0.00000     0.00  LINEAR    1.51024E-03   111.35    0.00000E+00     0.00
   65.00   335.00      -4.14 -999.99   -4.14    0.00000     0.00  LINEAR    8.12018E-04   109.28    0.00000E+00     0.00
   70.00   335.00      -6.81 -999.99   -6.81    0.00000     0.00  LINEAR    5.97476E-04  -126.98    0.00000E+00     0.00
   75.00   335.00      -6.80 -999.99   -6.80    0.00000     0.00  LINEAR    5.97955E-04  -124.80    0.00000E+00     0.00
   80.00   335.00      -5.85 -999.99   -5.85    0.00000     0.00  LINEAR    6.67332E-04    50.49    0.00000E+00     0.00
   85.00   335.00       0.69 -999.99    0.69    0.00000     0.00  LINEAR    1.41598E-03    49.30    0.00000E+00     0.00
   90.00   335.00      -6.66 -999.99   -6.66    0.00000     0.00  LINEAR    6.07595E-04    70.91    0.00000E+00     0.00
    0.00   340.00    -999.99 -999.99 -999.99    0.00000     0.00            0.00000E+00     0.00    0.00000E+00     0.00
    5.00   340.00      -5.57 -999.99   -5.57    0.00000     0.00  LINEAR    6.88618E-04    52.98    0.00000E+00     0.00
   10.00   340.00       0.54 -999.99    0.54    0.00000     0.00  LINEAR    1.39166E-03     7.87    0.00000E+00     0.00
   15.00   340.00       4.46 -999.99    4.46    0.00000     0.00  LINEAR    2.18522E-03   -24.76    0.00000E+00     0.00
   20.00   340.00       6.35 -999.99    6.35    0.00000     0.00  LINEAR    2.71855E-03   -60.33    0.00000E+00     0.00
   25.00   340.00       6.76 -999.99    6.76    0.00000     0.00  LINEAR    2.84908E-03   -95.83    0.00000E+00     0.00
   30.00   340.00       5.72 -999.99    5.72    0.00000     0.00  LINEAR    2.52885E-03  -128.81    0.00000E+00     0.00
   35.00   340.00       0.76 -999.99    0.76    0.00000     0.00  LINEAR    1.42723E-03  -162.09    0.00000E+00     0.00
   40.00   340.00      -9.29 -999.99   -9.29    0.00000     0.00  LINEAR    4.48823E-04    36.37    0.00000E+00     0.00
   45.00   340.00      -0.94 -999.99   -0.94    0.00000     0.00  LINEAR    1.17436E-03   -23.85    0.00000E+00     0.00
   50.00   340.00      -6.83 -999.99   -6.83    0.00000     0.00  LINEAR    5.96077E-04   -54.27    0.00000E+00     0.00
   55.00   340.00      -4.99 -999.99   -4.99    0.00000     0.00  LINEAR    7.36272E-04   100.05    0.00000E+00     0.00
   60.00   340.00       1.48 -999.99    1.48    0.00000     0.00  LINEAR    1.55216E-03    87.14    0.00000E+00     0.00
   65.00   340.00      -3.06 -999.99   -3.06    0.00000     0.00  LINEAR    9.19914E-04    79.73    0.00000E+00     0.00
   70.00   340.00      -9.36 -999.99   -9.36    0.00000     0.00  LINEAR    4.45187E-04  -150.35    0.00000E+00     0.00
   75.00   340.00      -6.62 -999.99   -6.62    0.00000     0.00  LINEAR    6.10461E-04  -149.35    0.00000E+00     0.00
   80.00   340.00      -7.40 -999.99   -7.40    0.00000     0.00  LINEAR    5.58347E-04    38.96    0.00000E+00     0.00
   85.00   340.00       0.00 -999.99    0.00    0.00000     0.00  LINEAR    1.30774E-03    33.29    0.00000E+00     0.00
   90.00   340.00      -7.52 -999.99   -7.52    0.00000     0.00  LINEAR    5.50480E-04    58.35    0.00000E+00     0.00
    0.00   345.00    -999.99 -999.99 -999.99    0.00000     0.00            0.00000E+00     0.00    0.00000E+00     0.00
    5.00   345.00      -5.60 -999.99   -5.60    0.00000     0.00  LINEAR    6.86291E-04    51.85    0.00000E+00     0.00
   10.00   345.00       0.37 -999.99    0.37    0.00000     0.00  LINEAR    1.36594E-03     4.64    0.00000E+00     0.00
   15.00   345.00       4.21 -999.99    4.21    0.00000     0.00  LINEAR    2.12331E-03   -28.71    0.00000E+00     0.00
   20.00   345.00       6.28 -999.99    6.28    0.00000     0.00  LINEAR    2.69608E-03   -62.52    0.00000E+00     0.00
   25.00   345.00       6.88 -999.99    6.88    0.00000     0.00  LINEAR    2.88887E-03   -97.54    0.00000E+00     0.00
   30.00   345.00       5.77 -999.99    5.77    0.00000     0.00  LINEAR    2.54213E-03  -133.09    0.00000E+00     0.00
   35.00   345.00       0.75 -999.99    0.75    0.00000     0.00  LINEAR    1.42661E-03  -168.68    0.00000E+00     0.00
   40.00   345.00     -10.30 -999.99  -10.30    0.00000     0.00  LINEAR    3.99792E-04    31.47    0.00000E+00     0.00
   45.00   345.00      -1.46 -999.99   -1.46    0.00000     0.00  LINEAR    1.10586E-03   -34.38    0.00000E+00     0.00
   50.00   345.00      -7.72 -999.99   -7.72    0.00000     0.00  LINEAR    5.37968E-04   -65.67    0.00000E+00     0.00
   55.00   345.00      -4.67 -999.99   -4.67    0.00000     0.00  LINEAR    7.63860E-04    82.19    0.00000E+00     0.00
   60.00   345.00       1.49 -999.99    1.49    0.00000     0.00  LINEAR    1.55383E-03    68.30    0.00000E+00     0.00
   65.00   345.00      -2.64 -999.99   -2.64    0.00000     0.00  LINEAR    9.64980E-04    59.25    0.00000E+00     0.00
   70.00   345.00      -8.74 -999.99   -8.74    0.00000     0.00  LINEAR    4.78352E-04  -155.06    0.00000E+00     0.00
   75.00   345.00      -4.93 -999.99   -4.93    0.00000     0.00  LINEAR    7.41413E-04  -158.06    0.00000E+00     0.00
   80.00   345.00      -6.34 -999.99   -6.34    0.00000     0.00  LINEAR    6.30713E-04    35.78    0.00000E+00     0.00
   85.00   345.00       1.22 -999.99    1.22    0.00000     0.00  LINEAR    1.50575E-03    26.64    0.00000E+00     0.00
   90.00   345.00      -7.55 -999.99   -7.55    0.00000     0.00  LINEAR    5.48464E-04    44.86    0.00000E+00     0.00
    0.00   350.00    -999.99 -999.99 -999.99    0.00000     0.00            0.00000E+00     0.00    0.00000E+00     0.00
    5.00   350.00      -5.63 -999.99   -5.63    0.00000     0.00  LINEAR    6.84435E-04    51.02    0.00000E+00     0.00
   10.00   350.00       0.25 -999.99    0.25    0.00000     0.00  LINEAR    1.34592E-03     2.17    0.00000E+00     0.00
   15.00   350.00       4.02 -999.99    4.02    0.00000     0.00  LINEAR    2.07765E-03   -31.44    0.00000E+00     0.00
   20.00   350.00       6.28 -999.99    6.28    0.00000     0.00  LINEAR    2.69458E-03   -63.30    0.00000E+00     0.00
   25.00   350.00       7.07 -999.99    7.07    0.00000     0.00  LINEAR    2.95109E-03   -97.73    0.00000E+00     0.00
   30.00   350.00       5.70 -999.99    5.70    0.00000     0.00  LINEAR    2.52135E-03  -135.73    0.00000E+00     0.00
   35.00   350.00       0.84 -999.99    0.84    0.00000     0.00  LINEAR    1.44144E-03  -172.34    0.00000E+00     0.00
   40.00   350.00     -17.08 -999.99  -17.08    0.00000     0.00  LINEAR    1.83072E-04    31.19    0.00000E+00     0.00
   45.00   350.00      -2.63 -999.99   -2.63    0.00000     0.00  LINEAR    9.66246E-04   -44.21    0.00000E+00     0.00
   50.00   350.00      -7.93 -999.99   -7.93    0.00000     0.00  LINEAR    5.25337E-04   -74.94    0.00000E+00     0.00
   55.00   350.00      -5.24 -999.99   -5.24    0.00000     0.00  LINEAR    7.15410E-04    81.41    0.00000E+00     0.00
   60.00   350.00       1.28 -999.99    1.28    0.00000     0.00  LINEAR    1.51562E-03    63.00    0.00000E+00     0.00
   65.00   350.00      -2.85 -999.99   -2.85    0.00000     0.00  LINEAR    9.42074E-04    50.08    0.00000E+00     0.00
   70.00   350.00      -8.27 -999.99   -8.27    0.00000     0.00  LINEAR    5.04928E-04  -154.91    0.00000E+00     0.00
   75.00   350.00      -4.46 -999.99   -4.46    0.00000     0.00  LINEAR    7.82784E-04  -163.12    0.00000E+00     0.00
   80.00   350.00      -6.24 -999.99   -6.24    0.00000     0.00  LINEAR    6.38092E-04    30.92    0.00000E+00     0.00
   85.00   350.00       1.38 -999.99    1.38    0.00000     0.00  LINEAR    1.53445E-03    20.32    0.00000E+00     0.00
   90.00   350.00      -7.85 -999.99   -7.85    0.00000     0.00  LINEAR    5.30233E-04    35.87    0.00000E+00     0.00
    0.00   355.00    -999.99 -999.99 -999.99    0.00000     0.00            0.00000E+00     0.00    0.00000E+00     0.00
    5.00   355.00      -5.64 -999.99   -5.64    0.00000     0.00  LINEAR    6.83240E-04    50.52    0.00000E+00     0.00
   10.00   355.00       0.16 -999.99    0.16    0.00000     0.00  LINEAR    1.33330E-03     0.62    0.00000E+00     0.00
   15.00   355.00       3.90 -999.99    3.90    0.00000     0.00  LINEAR    2.04977E-03   -33.00    0.00000E+00     0.00
   20.00   355.00       6.30 -999.99    6.30    0.00000     0.00  LINEAR    2.70320E-03   -63.41    0.00000E+00     0.00
   25.00   355.00       7.23 -999.99    7.23    0.00000     0.00  LINEAR    3.00588E-03   -97.44    0.00000E+00     0.00
   30.00   355.00       5.57 -999.99    5.57    0.00000     0.00  LINEAR    2.48529E-03  -137.28    0.00000E+00     0.00
   35.00   355.00       0.96 -999.99    0.96    0.00000     0.00  LINEAR    1.46107E-03  -173.92    0.00000E+00     0.00
   40.00   355.00     -29.26 -999.99  -29.26    0.00000     0.00  LINEAR    4.50415E-05   169.60    0.00000E+00     0.00
   45.00   355.00      -3.58 -999.99   -3.58    0.00000     0.00  LINEAR    8.66690E-04   -49.56    0.00000E+00     0.00
   50.00   355.00      -7.26 -999.99   -7.26    0.00000     0.00  LINEAR    5.66937E-04   -79.12    0.00000E+00     0.00
   55.00   355.00      -5.24 -999.99   -5.24    0.00000     0.00  LINEAR    7.15550E-04    93.38    0.00000E+00     0.00
   60.00   355.00       1.34 -999.99    1.34    0.00000     0.00  LINEAR    1.52596E-03    67.45    0.00000E+00     0.00
   65.00   355.00      -2.76 -999.99   -2.76    0.00000     0.00  LINEAR    9.52384E-04    50.48    0.00000E+00     0.00
   70.00   355.00     -10.48 -999.99  -10.48    0.00000     0.00  LINEAR    3.91588E-04  -176.21    0.00000E+00     0.00
   75.00   355.00      -5.77 -999.99   -5.77    0.00000     0.00  LINEAR    6.73634E-04  -176.78    0.00000E+00     0.00
   80.00   355.00      -8.09 -999.99   -8.09    0.00000     0.00  LINEAR    5.15764E-04    18.48    0.00000E+00     0.00
   85.00   355.00       0.10 -999.99    0.10    0.00000     0.00  LINEAR    1.32354E-03     9.22    0.00000E+00     0.00
   90.00   355.00      -8.00 -999.99   -8.00    0.00000     0.00  LINEAR    5.21036E-04    31.95    0.00000E+00     0.00






 ***** DATA CARD NO. 16   EN   0     0     0     0  0.00000E+00  0.00000E+00  0.00000E+00  0.00000E+00  0.00000E+00  0.00000E+00

 RUN TIME =     0.219
