1



                                 *********************************************

                                    NUMERICAL ELECTROMAGNETICS CODE (NEC-2D)

                                 *********************************************




                                     - - - - COMMENTS - - - -


                                                                                                     
                                                                                                     




                                 - - - STRUCTURE SPECIFICATION - - -

                                     COORDINATES MUST BE INPUT IN
                                     METERS OR BE SCALED TO METERS
                                     BEFORE STRUCTURE INPUT IS ENDED


  WIRE                                                                               NO. OF    FIRST  LAST     TAG
  NO.        X1         Y1         Z1          X2         Y2         Z2      RADIUS   SEG.     SEG.   SEG.     NO.
     1   -7.50000   -5.00000   -5.00000    -7.50000   -5.00000    5.00000    0.00100     20        1    20     101
     2   -2.50000   -5.00000   -5.00000    -2.50000   -5.00000    5.00000    0.00100     20       21    40     102
     3    2.50000   -5.00000   -5.00000     2.50000   -5.00000    5.00000    0.00100     20       41    60     103
     4    7.50000   -5.00000   -5.00000     7.50000   -5.00000    5.00000    0.00100     20       61    80     104
     5   -7.50000    0.00000   -5.00000    -7.50000    0.00000    5.00000    0.00100     20       81   100     201
     6   -2.50000    0.00000   -5.00000    -2.50000    0.00000    5.00000    0.00100     20      101   120     202
     7    2.50000    0.00000   -5.00000     2.50000    0.00000    5.00000    0.00100     20      121   140     203
     8    7.50000    0.00000   -5.00000     7.50000    0.00000    5.00000    0.00100     20      141   160     204
     9   -7.50000    5.00000   -5.00000    -7.50000    5.00000    5.00000    0.00100     20      161   180     301
    10   -2.50000    5.00000   -5.00000    -2.50000    5.00000    5.00000    0.00100     20      181   200     302
    11    2.50000    5.00000   -5.00000     2.50000    5.00000    5.00000    0.00100     20      201   220     303
    12    7.50000    5.00000   -5.00000     7.50000    5.00000    5.00000    0.00100     20      221   240     304

   TOTAL SEGMENTS USED=  240     NO. SEG. IN A SYMMETRIC CELL=  240     SYMMETRY FLAG=  0


         - MULTIPLE WIRE JUNCTIONS -
 JUNCTION    SEGMENTS  (- FOR END 1, + FOR END 2)
  NONE




                                 - - - - SEGMENTATION DATA - - - -

                                        COORDINATES IN METERS

                         I+ AND I- INDICATE THE SEGMENTS BEFORE AND AFTER I


  SEG.   COORDINATES OF SEG. CENTER     SEG.     ORIENTATION ANGLES    WIRE    CONNECTION DATA   TAG
  NO.       X         Y         Z       LENGTH     ALPHA     BETA      RADIUS    I-   I    I+    NO.
     1  -7.50000  -5.00000  -4.75000   0.50000   90.00000   0.00000   0.00100     0    1    2    101
     2  -7.50000  -5.00000  -4.25000   0.50000   90.00000   0.00000   0.00100     1    2    3    101
     3  -7.50000  -5.00000  -3.75000   0.50000   90.00000   0.00000   0.00100     2    3    4    101
     4  -7.50000  -5.00000  -3.25000   0.50000   90.00000   0.00000   0.00100     3    4    5    101
     5  -7.50000  -5.00000  -2.75000   0.50000   90.00000   0.00000   0.00100     4    5    6    101
     6  -7.50000  -5.00000  -2.25000   0.50000   90.00000   0.00000   0.00100     5    6    7    101
     7  -7.50000  -5.00000  -1.75000   0.50000   90.00000   0.00000   0.00100     6    7    8    101
     8  -7.50000  -5.00000  -1.25000   0.50000   90.00000   0.00000   0.00100     7    8    9    101
     9  -7.50000  -5.00000  -0.75000   0.50000   90.00000   0.00000   0.00100     8    9   10    101
    10  -7.50000  -5.00000  -0.25000   0.50000   90.00000   0.00000   0.00100     9   10   11    101
    11  -7.50000  -5.00000   0.25000   0.50000   90.00000   0.00000   0.00100    10   11   12    101
    12  -7.50000  -5.00000   0.75000   0.50000   90.00000   0.00000   0.00100    11   12   13    101
    13  -7.50000  -5.00000   1.25000   0.50000   90.00000   0.00000   0.00100    12   13   14    101
    14  -7.50000  -5.00000   1.75000   0.50000   90.00000   0.00000   0.00100    13   14   15    101
    15  -7.50000  -5.00000   2.25000   0.50000   90.00000   0.00000   0.00100    14   15   16    101
    16  -7.50000  -5.00000   2.75000   0.50000   90.00000   0.00000   0.00100    15   16   17    101
    17  -7.50000  -5.00000   3.25000   0.50000   90.00000   0.00000   0.00100    16   17   18    101
    18  -7.50000  -5.00000   3.75000   0.50000   90.00000   0.00000   0.00100    17   18   19    101
    19  -7.50000  -5.00000   4.25000   0.50000   90.00000   0.00000   0.00100    18   19   20    101
    20  -7.50000  -5.00000   4.75000   0.50000   90.00000   0.00000   0.00100    19   20    0    101
    21  -2.50000  -5.00000  -4.75000   0.50000   90.00000   0.00000   0.00100     0   21   22    102
    22  -2.50000  -5.00000  -4.25000   0.50000   90.00000   0.00000   0.00100    21   22   23    102
    23  -2.50000  -5.00000  -3.75000   0.50000   90.00000   0.00000   0.00100    22   23   24    102
    24  -2.50000  -5.00000  -3.25000   0.50000   90.00000   0.00000   0.00100    23   24   25    102
    25  -2.50000  -5.00000  -2.75000   0.50000   90.00000   0.00000   0.00100    24   25   26    102
    26  -2.50000  -5.00000  -2.25000   0.50000   90.00000   0.00000   0.00100    25   26   27    102
    27  -2.50000  -5.00000  -1.75000   0.50000   90.00000   0.00000   0.00100    26   27   28    102
    28  -2.50000  -5.00000  -1.25000   0.50000   90.00000   0.00000   0.00100    27   28   29    102
    29  -2.50000  -5.00000  -0.75000   0.50000   90.00000   0.00000   0.00100    28   29   30    102
    30  -2.50000  -5.00000  -0.25000   0.50000   90.00000   0.00000   0.00100    29   30   31    102
    31  -2.50000  -5.00000   0.25000   0.50000   90.00000   0.00000   0.00100    30   31   32    102
    32  -2.50000  -5.00000   0.75000   0.50000   90.00000   0.00000   0.00100    31   32   33    102
    33  -2.50000  -5.00000   1.25000   0.50000   90.00000   0.00000   0.00100    32   33   34    102
    34  -2.50000  -5.00000   1.75000   0.50000   90.00000   0.00000   0.00100    33   34   35    102
    35  -2.50000  -5.00000   2.25000   0.50000   90.00000   0.00000   0.00100    34   35   36    102
    36  -2.50000  -5.00000   2.75000   0.50000   90.00000   0.00000   0.00100    35   36   37    102
    37  -2.50000  -5.00000   3.25000   0.50000   90.00000   0.00000   0.00100    36   37   38    102
    38  -2.50000  -5.00000   3.75000   0.50000   90.00000   0.00000   0.00100    37   38   39    102
    39  -2.50000  -5.00000   4.25000   0.50000   90.00000   0.00000   0.00100    38   39   40    102
    40  -2.50000  -5.00000   4.75000   0.50000   90.00000   0.00000   0.00100    39   40    0    102
    41   2.50000  -5.00000  -4.75000   0.50000   90.00000   0.00000   0.00100     0   41   42    103
    42   2.50000  -5.00000  -4.25000   0.50000   90.00000   0.00000   0.00100    41   42   43    103
    43   2.50000  -5.00000  -3.75000   0.50000   90.00000   0.00000   0.00100    42   43   44    103
    44   2.50000  -5.00000  -3.25000   0.50000   90.00000   0.00000   0.00100    43   44   45    103
    45   2.50000  -5.00000  -2.75000   0.50000   90.00000   0.00000   0.00100    44   45   46    103
    46   2.50000  -5.00000  -2.25000   0.50000   90.00000   0.00000   0.00100    45   46   47    103
    47   2.50000  -5.00000  -1.75000   0.50000   90.00000   0.00000   0.00100    46   47   48    103
    48   2.50000  -5.00000  -1.25000   0.50000   90.00000   0.00000   0.00100    47   48   49    103
    49   2.50000  -5.00000  -0.75000   0.50000   90.00000   0.00000   0.00100    48   49   50    103
    50   2.50000  -5.00000  -0.25000   0.50000   90.00000   0.00000   0.00100    49   50   51    103
    51   2.50000  -5.00000   0.25000   0.50000   90.00000   0.00000   0.00100    50   51   52    103
    52   2.50000  -5.00000   0.75000   0.50000   90.00000   0.00000   0.00100    51   52   53    103
    53   2.50000  -5.00000   1.25000   0.50000   90.00000   0.00000   0.00100    52   53   54    103
    54   2.50000  -5.00000   1.75000   0.50000   90.00000   0.00000   0.00100    53   54   55    103
    55   2.50000  -5.00000   2.25000   0.50000   90.00000   0.00000   0.00100    54   55   56    103
    56   2.50000  -5.00000   2.75000   0.50000   90.00000   0.00000   0.00100    55   56   57    103
    57   2.50000  -5.00000   3.25000   0.50000   90.00000   0.00000   0.00100    56   57   58    103
    58   2.50000  -5.00000   3.75000   0.50000   90.00000   0.00000   0.00100    57   58   59    103
    59   2.50000  -5.00000   4.25000   0.50000   90.00000   0.00000   0.00100    58   59   60    103
    60   2.50000  -5.00000   4.75000   0.50000   90.00000   0.00000   0.00100    59   60    0    103
    61   7.50000  -5.00000  -4.75000   0.50000   90.00000   0.00000   0.00100     0   61   62    104
    62   7.50000  -5.00000  -4.25000   0.50000   90.00000   0.00000   0.00100    61   62   63    104
    63   7.50000  -5.00000  -3.75000   0.50000   90.00000   0.00000   0.00100    62   63   64    104
    64   7.50000  -5.00000  -3.25000   0.50000   90.00000   0.00000   0.00100    63   64   65    104
    65   7.50000  -5.00000  -2.75000   0.50000   90.00000   0.00000   0.00100    64   65   66    104
    66   7.50000  -5.00000  -2.25000   0.50000   90.00000   0.00000   0.00100    65   66   67    104
    67   7.50000  -5.00000  -1.75000   0.50000   90.00000   0.00000   0.00100    66   67   68    104
    68   7.50000  -5.00000  -1.25000   0.50000   90.00000   0.00000   0.00100    67   68   69    104
    69   7.50000  -5.00000  -0.75000   0.50000   90.00000   0.00000   0.00100    68   69   70    104
    70   7.50000  -5.00000  -0.25000   0.50000   90.00000   0.00000   0.00100    69   70   71    104
    71   7.50000  -5.00000   0.25000   0.50000   90.00000   0.00000   0.00100    70   71   72    104
    72   7.50000  -5.00000   0.75000   0.50000   90.00000   0.00000   0.00100    71   72   73    104
    73   7.50000  -5.00000   1.25000   0.50000   90.00000   0.00000   0.00100    72   73   74    104
    74   7.50000  -5.00000   1.75000   0.50000   90.00000   0.00000   0.00100    73   74   75    104
    75   7.50000  -5.00000   2.25000   0.50000   90.00000   0.00000   0.00100    74   75   76    104
    76   7.50000  -5.00000   2.75000   0.50000   90.00000   0.00000   0.00100    75   76   77    104
    77   7.50000  -5.00000   3.25000   0.50000   90.00000   0.00000   0.00100    76   77   78    104
    78   7.50000  -5.00000   3.75000   0.50000   90.00000   0.00000   0.00100    77   78   79    104
    79   7.50000  -5.00000   4.25000   0.50000   90.00000   0.00000   0.00100    78   79   80    104
    80   7.50000  -5.00000   4.75000   0.50000   90.00000   0.00000   0.00100    79   80    0    104
    81  -7.50000   0.00000  -4.75000   0.50000   90.00000   0.00000   0.00100     0   81   82    201
    82  -7.50000   0.00000  -4.25000   0.50000   90.00000   0.00000   0.00100    81   82   83    201
    83  -7.50000   0.00000  -3.75000   0.50000   90.00000   0.00000   0.00100    82   83   84    201
    84  -7.50000   0.00000  -3.25000   0.50000   90.00000   0.00000   0.00100    83   84   85    201
    85  -7.50000   0.00000  -2.75000   0.50000   90.00000   0.00000   0.00100    84   85   86    201
    86  -7.50000   0.00000  -2.25000   0.50000   90.00000   0.00000   0.00100    85   86   87    201
    87  -7.50000   0.00000  -1.75000   0.50000   90.00000   0.00000   0.00100    86   87   88    201
    88  -7.50000   0.00000  -1.25000   0.50000   90.00000   0.00000   0.00100    87   88   89    201
    89  -7.50000   0.00000  -0.75000   0.50000   90.00000   0.00000   0.00100    88   89   90    201
    90  -7.50000   0.00000  -0.25000   0.50000   90.00000   0.00000   0.00100    89   90   91    201
    91  -7.50000   0.00000   0.25000   0.50000   90.00000   0.00000   0.00100    90   91   92    201
    92  -7.50000   0.00000   0.75000   0.50000   90.00000   0.00000   0.00100    91   92   93    201
    93  -7.50000   0.00000   1.25000   0.50000   90.00000   0.00000   0.00100    92   93   94    201
    94  -7.50000   0.00000   1.75000   0.50000   90.00000   0.00000   0.00100    93   94   95    201
    95  -7.50000   0.00000   2.25000   0.50000   90.00000   0.00000   0.00100    94   95   96    201
    96  -7.50000   0.00000   2.75000   0.50000   90.00000   0.00000   0.00100    95   96   97    201
    97  -7.50000   0.00000   3.25000   0.50000   90.00000   0.00000   0.00100    96   97   98    201
    98  -7.50000   0.00000   3.75000   0.50000   90.00000   0.00000   0.00100    97   98   99    201
    99  -7.50000   0.00000   4.25000   0.50000   90.00000   0.00000   0.00100    98   99  100    201
   100  -7.50000   0.00000   4.75000   0.50000   90.00000   0.00000   0.00100    99  100    0    201
   101  -2.50000   0.00000  -4.75000   0.50000   90.00000   0.00000   0.00100     0  101  102    202
   102  -2.50000   0.00000  -4.25000   0.50000   90.00000   0.00000   0.00100   101  102  103    202
   103  -2.50000   0.00000  -3.75000   0.50000   90.00000   0.00000   0.00100   102  103  104    202
   104  -2.50000   0.00000  -3.25000   0.50000   90.00000   0.00000   0.00100   103  104  105    202
   105  -2.50000   0.00000  -2.75000   0.50000   90.00000   0.00000   0.00100   104  105  106    202
   106  -2.50000   0.00000  -2.25000   0.50000   90.00000   0.00000   0.00100   105  106  107    202
   107  -2.50000   0.00000  -1.75000   0.50000   90.00000   0.00000   0.00100   106  107  108    202
   108  -2.50000   0.00000  -1.25000   0.50000   90.00000   0.00000   0.00100   107  108  109    202
   109  -2.50000   0.00000  -0.75000   0.50000   90.00000   0.00000   0.00100   108  109  110    202
   110  -2.50000   0.00000  -0.25000   0.50000   90.00000   0.00000   0.00100   109  110  111    202
   111  -2.50000   0.00000   0.25000   0.50000   90.00000   0.00000   0.00100   110  111  112    202
   112  -2.50000   0.00000   0.75000   0.50000   90.00000   0.00000   0.00100   111  112  113    202
   113  -2.50000   0.00000   1.25000   0.50000   90.00000   0.00000   0.00100   112  113  114    202
   114  -2.50000   0.00000   1.75000   0.50000   90.00000   0.00000   0.00100   113  114  115    202
   115  -2.50000   0.00000   2.25000   0.50000   90.00000   0.00000   0.00100   114  115  116    202
   116  -2.50000   0.00000   2.75000   0.50000   90.00000   0.00000   0.00100   115  116  117    202
   117  -2.50000   0.00000   3.25000   0.50000   90.00000   0.00000   0.00100   116  117  118    202
   118  -2.50000   0.00000   3.75000   0.50000   90.00000   0.00000   0.00100   117  118  119    202
   119  -2.50000   0.00000   4.25000   0.50000   90.00000   0.00000   0.00100   118  119  120    202
   120  -2.50000   0.00000   4.75000   0.50000   90.00000   0.00000   0.00100   119  120    0    202
   121   2.50000   0.00000  -4.75000   0.50000   90.00000   0.00000   0.00100     0  121  122    203
   122   2.50000   0.00000  -4.25000   0.50000   90.00000   0.00000   0.00100   121  122  123    203
   123   2.50000   0.00000  -3.75000   0.50000   90.00000   0.00000   0.00100   122  123  124    203
   124   2.50000   0.00000  -3.25000   0.50000   90.00000   0.00000   0.00100   123  124  125    203
   125   2.50000   0.00000  -2.75000   0.50000   90.00000   0.00000   0.00100   124  125  126    203
   126   2.50000   0.00000  -2.25000   0.50000   90.00000   0.00000   0.00100   125  126  127    203
   127   2.50000   0.00000  -1.75000   0.50000   90.00000   0.00000   0.00100   126  127  128    203
   128   2.50000   0.00000  -1.25000   0.50000   90.00000   0.00000   0.00100   127  128  129    203
   129   2.50000   0.00000  -0.75000   0.50000   90.00000   0.00000   0.00100   128  129  130    203
   130   2.50000   0.00000  -0.25000   0.50000   90.00000   0.00000   0.00100   129  130  131    203
   131   2.50000   0.00000   0.25000   0.50000   90.00000   0.00000   0.00100   130  131  132    203
   132   2.50000   0.00000   0.75000   0.50000   90.00000   0.00000   0.00100   131  132  133    203
   133   2.50000   0.00000   1.25000   0.50000   90.00000   0.00000   0.00100   132  133  134    203
   134   2.50000   0.00000   1.75000   0.50000   90.00000   0.00000   0.00100   133  134  135    203
   135   2.50000   0.00000   2.25000   0.50000   90.00000   0.00000   0.00100   134  135  136    203
   136   2.50000   0.00000   2.75000   0.50000   90.00000   0.00000   0.00100   135  136  137    203
   137   2.50000   0.00000   3.25000   0.50000   90.00000   0.00000   0.00100   136  137  138    203
   138   2.50000   0.00000   3.75000   0.50000   90.00000   0.00000   0.00100   137  138  139    203
   139   2.50000   0.00000   4.25000   0.50000   90.00000   0.00000   0.00100   138  139  140    203
   140   2.50000   0.00000   4.75000   0.50000   90.00000   0.00000   0.00100   139  140    0    203
   141   7.50000   0.00000  -4.75000   0.50000   90.00000   0.00000   0.00100     0  141  142    204
   142   7.50000   0.00000  -4.25000   0.50000   90.00000   0.00000   0.00100   141  142  143    204
   143   7.50000   0.00000  -3.75000   0.50000   90.00000   0.00000   0.00100   142  143  144    204
   144   7.50000   0.00000  -3.25000   0.50000   90.00000   0.00000   0.00100   143  144  145    204
   145   7.50000   0.00000  -2.75000   0.50000   90.00000   0.00000   0.00100   144  145  146    204
   146   7.50000   0.00000  -2.25000   0.50000   90.00000   0.00000   0.00100   145  146  147    204
   147   7.50000   0.00000  -1.75000   0.50000   90.00000   0.00000   0.00100   146  147  148    204
   148   7.50000   0.00000  -1.25000   0.50000   90.00000   0.00000   0.00100   147  148  149    204
   149   7.50000   0.00000  -0.75000   0.50000   90.00000   0.00000   0.00100   148  149  150    204
   150   7.50000   0.00000  -0.25000   0.50000   90.00000   0.00000   0.00100   149  150  151    204
   151   7.50000   0.00000   0.25000   0.50000   90.00000   0.00000   0.00100   150  151  152    204
   152   7.50000   0.00000   0.75000   0.50000   90.00000   0.00000   0.00100   151  152  153    204
   153   7.50000   0.00000   1.25000   0.50000   90.00000   0.00000   0.00100   152  153  154    204
   154   7.50000   0.00000   1.75000   0.50000   90.00000   0.00000   0.00100   153  154  155    204
   155   7.50000   0.00000   2.25000   0.50000   90.00000   0.00000   0.00100   154  155  156    204
   156   7.50000   0.00000   2.75000   0.50000   90.00000   0.00000   0.00100   155  156  157    204
   157   7.50000   0.00000   3.25000   0.50000   90.00000   0.00000   0.00100   156  157  158    204
   158   7.50000   0.00000   3.75000   0.50000   90.00000   0.00000   0.00100   157  158  159    204
   159   7.50000   0.00000   4.25000   0.50000   90.00000   0.00000   0.00100   158  159  160    204
   160   7.50000   0.00000   4.75000   0.50000   90.00000   0.00000   0.00100   159  160    0    204
   161  -7.50000   5.00000  -4.75000   0.50000   90.00000   0.00000   0.00100     0  161  162    301
   162  -7.50000   5.00000  -4.25000   0.50000   90.00000   0.00000   0.00100   161  162  163    301
   163  -7.50000   5.00000  -3.75000   0.50000   90.00000   0.00000   0.00100   162  163  164    301
   164  -7.50000   5.00000  -3.25000   0.50000   90.00000   0.00000   0.00100   163  164  165    301
   165  -7.50000   5.00000  -2.75000   0.50000   90.00000   0.00000   0.00100   164  165  166    301
   166  -7.50000   5.00000  -2.25000   0.50000   90.00000   0.00000   0.00100   165  166  167    301
   167  -7.50000   5.00000  -1.75000   0.50000   90.00000   0.00000   0.00100   166  167  168    301
   168  -7.50000   5.00000  -1.25000   0.50000   90.00000   0.00000   0.00100   167  168  169    301
   169  -7.50000   5.00000  -0.75000   0.50000   90.00000   0.00000   0.00100   168  169  170    301
   170  -7.50000   5.00000  -0.25000   0.50000   90.00000   0.00000   0.00100   169  170  171    301
   171  -7.50000   5.00000   0.25000   0.50000   90.00000   0.00000   0.00100   170  171  172    301
   172  -7.50000   5.00000   0.75000   0.50000   90.00000   0.00000   0.00100   171  172  173    301
   173  -7.50000   5.00000   1.25000   0.50000   90.00000   0.00000   0.00100   172  173  174    301
   174  -7.50000   5.00000   1.75000   0.50000   90.00000   0.00000   0.00100   173  174  175    301
   175  -7.50000   5.00000   2.25000   0.50000   90.00000   0.00000   0.00100   174  175  176    301
   176  -7.50000   5.00000   2.75000   0.50000   90.00000   0.00000   0.00100   175  176  177    301
   177  -7.50000   5.00000   3.25000   0.50000   90.00000   0.00000   0.00100   176  177  178    301
   178  -7.50000   5.00000   3.75000   0.50000   90.00000   0.00000   0.00100   177  178  179    301
   179  -7.50000   5.00000   4.25000   0.50000   90.00000   0.00000   0.00100   178  179  180    301
   180  -7.50000   5.00000   4.75000   0.50000   90.00000   0.00000   0.00100   179  180    0    301
   181  -2.50000   5.00000  -4.75000   0.50000   90.00000   0.00000   0.00100     0  181  182    302
   182  -2.50000   5.00000  -4.25000   0.50000   90.00000   0.00000   0.00100   181  182  183    302
   183  -2.50000   5.00000  -3.75000   0.50000   90.00000   0.00000   0.00100   182  183  184    302
   184  -2.50000   5.00000  -3.25000   0.50000   90.00000   0.00000   0.00100   183  184  185    302
   185  -2.50000   5.00000  -2.75000   0.50000   90.00000   0.00000   0.00100   184  185  186    302
   186  -2.50000   5.00000  -2.25000   0.50000   90.00000   0.00000   0.00100   185  186  187    302
   187  -2.50000   5.00000  -1.75000   0.50000   90.00000   0.00000   0.00100   186  187  188    302
   188  -2.50000   5.00000  -1.25000   0.50000   90.00000   0.00000   0.00100   187  188  189    302
   189  -2.50000   5.00000  -0.75000   0.50000   90.00000   0.00000   0.00100   188  189  190    302
   190  -2.50000   5.00000  -0.25000   0.50000   90.00000   0.00000   0.00100   189  190  191    302
   191  -2.50000   5.00000   0.25000   0.50000   90.00000   0.00000   0.00100   190  191  192    302
   192  -2.50000   5.00000   0.75000   0.50000   90.00000   0.00000   0.00100   191  192  193    302
   193  -2.50000   5.00000   1.25000   0.50000   90.00000   0.00000   0.00100   192  193  194    302
   194  -2.50000   5.00000   1.75000   0.50000   90.00000   0.00000   0.00100   193  194  195    302
   195  -2.50000   5.00000   2.25000   0.50000   90.00000   0.00000   0.00100   194  195  196    302
   196  -2.50000   5.00000   2.75000   0.50000   90.00000   0.00000   0.00100   195  196  197    302
   197  -2.50000   5.00000   3.25000   0.50000   90.00000   0.00000   0.00100   196  197  198    302
   198  -2.50000   5.00000   3.75000   0.50000   90.00000   0.00000   0.00100   197  198  199    302
   199  -2.50000   5.00000   4.25000   0.50000   90.00000   0.00000   0.00100   198  199  200    302
   200  -2.50000   5.00000   4.75000   0.50000   90.00000   0.00000   0.00100   199  200    0    302
   201   2.50000   5.00000  -4.75000   0.50000   90.00000   0.00000   0.00100     0  201  202    303
   202   2.50000   5.00000  -4.25000   0.50000   90.00000   0.00000   0.00100   201  202  203    303
   203   2.50000   5.00000  -3.75000   0.50000   90.00000   0.00000   0.00100   202  203  204    303
   204   2.50000   5.00000  -3.25000   0.50000   90.00000   0.00000   0.00100   203  204  205    303
   205   2.50000   5.00000  -2.75000   0.50000   90.00000   0.00000   0.00100   204  205  206    303
   206   2.50000   5.00000  -2.25000   0.50000   90.00000   0.00000   0.00100   205  206  207    303
   207   2.50000   5.00000  -1.75000   0.50000   90.00000   0.00000   0.00100   206  207  208    303
   208   2.50000   5.00000  -1.25000   0.50000   90.00000   0.00000   0.00100   207  208  209    303
   209   2.50000   5.00000  -0.75000   0.50000   90.00000   0.00000   0.00100   208  209  210    303
   210   2.50000   5.00000  -0.25000   0.50000   90.00000   0.00000   0.00100   209  210  211    303
   211   2.50000   5.00000   0.25000   0.50000   90.00000   0.00000   0.00100   210  211  212    303
   212   2.50000   5.00000   0.75000   0.50000   90.00000   0.00000   0.00100   211  212  213    303
   213   2.50000   5.00000   1.25000   0.50000   90.00000   0.00000   0.00100   212  213  214    303
   214   2.50000   5.00000   1.75000   0.50000   90.00000   0.00000   0.00100   213  214  215    303
   215   2.50000   5.00000   2.25000   0.50000   90.00000   0.00000   0.00100   214  215  216    303
   216   2.50000   5.00000   2.75000   0.50000   90.00000   0.00000   0.00100   215  216  217    303
   217   2.50000   5.00000   3.25000   0.50000   90.00000   0.00000   0.00100   216  217  218    303
   218   2.50000   5.00000   3.75000   0.50000   90.00000   0.00000   0.00100   217  218  219    303
   219   2.50000   5.00000   4.25000   0.50000   90.00000   0.00000   0.00100   218  219  220    303
   220   2.50000   5.00000   4.75000   0.50000   90.00000   0.00000   0.00100   219  220    0    303
   221   7.50000   5.00000  -4.75000   0.50000   90.00000   0.00000   0.00100     0  221  222    304
   222   7.50000   5.00000  -4.25000   0.50000   90.00000   0.00000   0.00100   221  222  223    304
   223   7.50000   5.00000  -3.75000   0.50000   90.00000   0.00000   0.00100   222  223  224    304
   224   7.50000   5.00000  -3.25000   0.50000   90.00000   0.00000   0.00100   223  224  225    304
   225   7.50000   5.00000  -2.75000   0.50000   90.00000   0.00000   0.00100   224  225  226    304
   226   7.50000   5.00000  -2.25000   0.50000   90.00000   0.00000   0.00100   225  226  227    304
   227   7.50000   5.00000  -1.75000   0.50000   90.00000   0.00000   0.00100   226  227  228    304
   228   7.50000   5.00000  -1.25000   0.50000   90.00000   0.00000   0.00100   227  228  229    304
   229   7.50000   5.00000  -0.75000   0.50000   90.00000   0.00000   0.00100   228  229  230    304
   230   7.50000   5.00000  -0.25000   0.50000   90.00000   0.00000   0.00100   229  230  231    304
   231   7.50000   5.00000   0.25000   0.50000   90.00000   0.00000   0.00100   230  231  232    304
   232   7.50000   5.00000   0.75000   0.50000   90.00000   0.00000   0.00100   231  232  233    304
   233   7.50000   5.00000   1.25000   0.50000   90.00000   0.00000   0.00100   232  233  234    304
   234   7.50000   5.00000   1.75000   0.50000   90.00000   0.00000   0.00100   233  234  235    304
   235   7.50000   5.00000   2.25000   0.50000   90.00000   0.00000   0.00100   234  235  236    304
   236   7.50000   5.00000   2.75000   0.50000   90.00000   0.00000   0.00100   235  236  237    304
   237   7.50000   5.00000   3.25000   0.50000   90.00000   0.00000   0.00100   236  237  238    304
   238   7.50000   5.00000   3.75000   0.50000   90.00000   0.00000   0.00100   237  238  239    304
   239   7.50000   5.00000   4.25000   0.50000   90.00000   0.00000   0.00100   238  239  240    304
   240   7.50000   5.00000   4.75000   0.50000   90.00000   0.00000   0.00100   239  240    0    304






 ***** DATA CARD NO.  1   GN  -1     0     0     0  1.00000E+01  1.00000E-02  0.00000E+00  0.00000E+00  0.00000E+00  0.00000E+00
 ***** DATA CARD NO.  2   FR   0     0     0     0  1.50000E+02  0.00000E+00  0.00000E+00  0.00000E+00  0.00000E+00  0.00000E+00
 ***** DATA CARD NO.  3   EX   0   101    10     0  1.00000E-09  0.00000E+00  0.00000E+00  0.00000E+00  0.00000E+00  0.00000E+00
 ***** DATA CARD NO.  4   EX   0   102    10     0  1.00000E-09  0.00000E+00  0.00000E+00  0.00000E+00  0.00000E+00  0.00000E+00
 ***** DATA CARD NO.  5   EX   0   103    10     0  1.00000E+00  0.00000E+00  0.00000E+00  0.00000E+00  0.00000E+00  0.00000E+00
 ***** DATA CARD NO.  6   EX   0   104    10     0  1.00000E-09  0.00000E+00  0.00000E+00  0.00000E+00  0.00000E+00  0.00000E+00
 ***** DATA CARD NO.  7   EX   0   201    10     0  1.00000E-09  0.00000E+00  0.00000E+00  0.00000E+00  0.00000E+00  0.00000E+00
 ***** DATA CARD NO.  8   EX   0   202    10     0  1.00000E-09  0.00000E+00  0.00000E+00  0.00000E+00  0.00000E+00  0.00000E+00
 ***** DATA CARD NO.  9   EX   0   203    10     0  1.00000E-09  0.00000E+00  0.00000E+00  0.00000E+00  0.00000E+00  0.00000E+00
 ***** DATA CARD NO. 10   EX   0   204    10     0  1.00000E-09  0.00000E+00  0.00000E+00  0.00000E+00  0.00000E+00  0.00000E+00
 ***** DATA CARD NO. 11   EX   0   301    10     0  1.00000E-09  0.00000E+00  0.00000E+00  0.00000E+00  0.00000E+00  0.00000E+00
 ***** DATA CARD NO. 12   EX   0   302    10     0  1.00000E-09  0.00000E+00  0.00000E+00  0.00000E+00  0.00000E+00  0.00000E+00
 ***** DATA CARD NO. 13   EX   0   303    10     0  1.00000E-09  0.00000E+00  0.00000E+00  0.00000E+00  0.00000E+00  0.00000E+00
 ***** DATA CARD NO. 14   EX   0   304    10     0  1.00000E-09  0.00000E+00  0.00000E+00  0.00000E+00  0.00000E+00  0.00000E+00
 ***** DATA CARD NO. 15   RP   0    19    72  1010  0.00000E+00  0.00000E+00  5.00000E+00  5.00000E+00  0.00000E+00  0.00000E+00




                                 - - - - - - FREQUENCY - - - - - -

                                    FREQUENCY= 1.5000E+02 MHZ
                                    WAVELENGTH= 1.9987E+00 METERS




                    APPROXIMATE INTEGRATION EMPLOYED FOR SEGMENTS MORE THAN   1.000 WAVELENGTHS APART



                               - - - STRUCTURE IMPEDANCE LOADING - - -

                                   THIS STRUCTURE IS NOT LOADED



                                  - - - ANTENNA ENVIRONMENT - - -

                                            FREE SPACE



                                - - - MATRIX TIMING - - -

                        FILL=    0.047 SEC.,  FACTOR=    0.031 SEC.



                                          - - - ANTENNA INPUT PARAMETERS - - -

   TAG   SEG.    VOLTAGE (VOLTS)         CURRENT (AMPS)         IMPEDANCE (OHMS)        ADMITTANCE (MHOS)      POWER
   NO.   NO.    REAL        IMAG.       REAL        IMAG.       REAL        IMAG.       REAL        IMAG.     (WATTS)
   101    10 1.00000E-09 0.00000E+00 2.08837E-05 3.73461E-06 4.64003E-05-8.29771E-06 2.08837E+04 3.73461E+03 1.04419E-14
   102    30 1.00000E-09 0.00000E+00-2.60788E-05 2.83575E-05-1.75704E-05-1.91056E-05-2.60788E+04 2.83575E+04-1.30394E-14
   103    50 1.00000E+00 0.00000E+00 2.96327E-03-1.37325E-03 2.77804E+02 1.28741E+02 2.96327E-03-1.37325E-03 1.48163E-03
   104    70 1.00000E-09 0.00000E+00-2.54855E-05 2.90553E-05-1.70617E-05-1.94516E-05-2.54855E+04 2.90553E+04-1.27428E-14
   201    90 1.00000E-09 0.00000E+00-5.62844E-06-2.68540E-05-7.47654E-06 3.56714E-05-5.62844E+03-2.68540E+04-2.81422E-15
   202   110 1.00000E-09 0.00000E+00 8.67722E-05 4.59349E-05 9.00180E-06-4.76531E-06 8.67722E+04 4.59349E+04 4.33861E-14
   203   130 1.00000E-09 0.00000E+00-2.73230E-05 2.25753E-05-2.17507E-05-1.79712E-05-2.73230E+04 2.25753E+04-1.36615E-14
   204   150 1.00000E-09 0.00000E+00 8.63734E-05 4.51152E-05 9.09601E-06-4.75110E-06 8.63734E+04 4.51152E+04 4.31867E-14
   301   170 1.00000E-09 0.00000E+00-3.06249E-05 5.93552E-06-3.14710E-05-6.09952E-06-3.06249E+04 5.93552E+03-1.53124E-14
   302   190 1.00000E-09 0.00000E+00-2.76583E-06-3.18573E-05-2.70486E-06 3.11551E-05-2.76583E+03-3.18573E+04-1.38292E-15
   303   210 1.00000E-09 0.00000E+00 2.63284E-05 8.11582E-06 3.46859E-05-1.06921E-05 2.63284E+04 8.11582E+03 1.31642E-14
   304   230 1.00000E-09 0.00000E+00-5.12103E-06-3.12958E-05-5.09225E-06 3.11199E-05-5.12103E+03-3.12958E+04-2.56052E-15



                             - - - CURRENTS AND LOCATION - - -

                                 DISTANCES IN WAVELENGTHS


  SEG.  TAG    COORD. OF SEG. CENTER     SEG.            - - - CURRENT (AMPS) - - -
  NO.   NO.     X        Y        Z      LENGTH     REAL        IMAG.       MAG.        PHASE
     1  101  -3.7525  -2.5017  -2.3766  0.25017   2.9530E-05  3.3711E-06  2.9722E-05    6.513
     2  101  -3.7525  -2.5017  -2.1264  0.25017   2.2501E-05  8.8761E-06  2.4189E-05   21.528
     3  101  -3.7525  -2.5017  -1.8763  0.25017  -3.7262E-05  1.3134E-05  3.9509E-05  160.584
     4  101  -3.7525  -2.5017  -1.6261  0.25017  -3.8472E-05  1.0852E-05  3.9973E-05  164.248
     5  101  -3.7525  -2.5017  -1.3759  0.25017   1.7013E-05  3.9738E-06  1.7471E-05   13.147
     6  101  -3.7525  -2.5017  -1.1258  0.25017   2.5479E-05  4.5670E-06  2.5885E-05   10.162
     7  101  -3.7525  -2.5017  -0.8756  0.25017  -1.6858E-05  1.4271E-05  2.2088E-05  139.750
     8  101  -3.7525  -2.5017  -0.6254  0.25017  -1.5860E-05  1.9177E-05  2.4886E-05  129.593
     9  101  -3.7525  -2.5017  -0.3753  0.25017   2.7664E-05  1.2581E-05  3.0390E-05   24.455
    10  101  -3.7525  -2.5017  -0.1251  0.25017   2.0884E-05  3.7346E-06  2.1215E-05   10.139
    11  101  -3.7525  -2.5017   0.1251  0.25017  -3.1943E-05 -8.1436E-07  3.1954E-05 -178.540
    12  101  -3.7525  -2.5017   0.3753  0.25017  -3.4699E-05 -4.3406E-06  3.4970E-05 -172.870
    13  101  -3.7525  -2.5017   0.6254  0.25017   1.1753E-05 -5.4455E-06  1.2953E-05  -24.860
    14  101  -3.7525  -2.5017   0.8756  0.25017   1.5253E-05  2.0176E-06  1.5386E-05    7.535
    15  101  -3.7525  -2.5017   1.1258  0.25017  -2.0255E-05  1.1831E-05  2.3457E-05  149.711
    16  101  -3.7525  -2.5017   1.3759  0.25017  -4.0306E-06  9.5025E-06  1.0322E-05  112.985
    17  101  -3.7525  -2.5017   1.6261  0.25017   5.1340E-05 -4.2695E-06  5.1518E-05   -4.754
    18  101  -3.7525  -2.5017   1.8763  0.25017   4.2987E-05 -1.3758E-05  4.5135E-05  -17.747
    19  101  -3.7525  -2.5017   2.1264  0.25017  -2.1400E-05 -1.1670E-05  2.4375E-05 -151.395
    20  101  -3.7525  -2.5017   2.3766  0.25017  -2.8613E-05 -4.1811E-06  2.8916E-05 -171.686
    21  102  -1.2508  -2.5017  -2.3766  0.25017  -3.8953E-05  2.9673E-05  4.8967E-05  142.701
    22  102  -1.2508  -2.5017  -2.1264  0.25017  -7.1447E-07  5.7704E-06  5.8144E-06   97.058
    23  102  -1.2508  -2.5017  -1.8763  0.25017   9.2218E-05 -4.9190E-05  1.0452E-04  -28.076
    24  102  -1.2508  -2.5017  -1.6261  0.25017   4.4744E-05 -1.3847E-05  4.6838E-05  -17.196
    25  102  -1.2508  -2.5017  -1.3759  0.25017  -8.5834E-05  3.7383E-05  9.3621E-05  156.466
    26  102  -1.2508  -2.5017  -1.1258  0.25017  -8.4978E-05 -1.8970E-05  8.7069E-05 -167.416
    27  102  -1.2508  -2.5017  -0.8756  0.25017   2.7676E-05 -8.6295E-05  9.0625E-05  -72.218
    28  102  -1.2508  -2.5017  -0.6254  0.25017   4.8447E-05 -1.6984E-05  5.1338E-05  -19.319
    29  102  -1.2508  -2.5017  -0.3753  0.25017  -2.7557E-05  8.3018E-05  8.7472E-05  108.363
    30  102  -1.2508  -2.5017  -0.1251  0.25017  -2.6079E-05  2.8357E-05  3.8526E-05  132.603
    31  102  -1.2508  -2.5017   0.1251  0.25017   4.8286E-05 -9.5859E-05  1.0733E-04  -63.265
    32  102  -1.2508  -2.5017   0.3753  0.25017   3.1097E-05 -8.0137E-05  8.5959E-05  -68.791
    33  102  -1.2508  -2.5017   0.6254  0.25017  -5.4973E-05  3.2822E-05  6.4026E-05  149.160
    34  102  -1.2508  -2.5017   0.8756  0.25017  -3.2831E-05  4.5570E-05  5.6165E-05  125.771
    35  102  -1.2508  -2.5017   1.1258  0.25017   6.7019E-05 -2.7358E-05  7.2388E-05  -22.206
    36  102  -1.2508  -2.5017   1.3759  0.25017   4.2944E-05 -1.8752E-05  4.6859E-05  -23.590
    37  102  -1.2508  -2.5017   1.6261  0.25017  -8.3565E-05  5.7224E-05  1.0128E-04  145.597
    38  102  -1.2508  -2.5017   1.8763  0.25017  -8.4565E-05  4.9923E-05  9.8201E-05  149.444
    39  102  -1.2508  -2.5017   2.1264  0.25017   4.6887E-05 -2.5984E-05  5.3605E-05  -28.995
    40  102  -1.2508  -2.5017   2.3766  0.25017   6.6127E-05 -3.0556E-05  7.2845E-05  -24.801
    41  103   1.2508  -2.5017  -2.3766  0.25017   2.8058E-03 -1.8174E-03  3.3430E-03  -32.933
    42  103   1.2508  -2.5017  -2.1264  0.25017   2.6728E-03 -1.2323E-03  2.9432E-03  -24.753
    43  103   1.2508  -2.5017  -1.8763  0.25017  -2.6855E-03  2.0204E-03  3.3606E-03  143.044
    44  103   1.2508  -2.5017  -1.6261  0.25017  -2.6571E-03  1.1170E-03  2.8823E-03  157.199
    45  103   1.2508  -2.5017  -1.3759  0.25017   2.6359E-03 -2.0966E-03  3.3681E-03  -38.499
    46  103   1.2508  -2.5017  -1.1258  0.25017   2.6684E-03 -1.0529E-03  2.8686E-03  -21.533
    47  103   1.2508  -2.5017  -0.8756  0.25017  -2.6261E-03  2.1503E-03  3.3942E-03  140.688
    48  103   1.2508  -2.5017  -0.6254  0.25017  -2.7219E-03  9.6871E-04  2.8891E-03  160.409
    49  103   1.2508  -2.5017  -0.3753  0.25017   2.6462E-03 -2.2543E-03  3.4762E-03  -40.428
    50  103   1.2508  -2.5017  -0.1251  0.25017   2.9633E-03 -1.3732E-03  3.2660E-03  -24.864
    51  103   1.2508  -2.5017   0.1251  0.25017  -2.2808E-03 -1.1074E-04  2.2835E-03 -177.220
    52  103   1.2508  -2.5017   0.3753  0.25017  -2.7084E-03  9.0201E-04  2.8546E-03  161.580
    53  103   1.2508  -2.5017   0.6254  0.25017   2.3428E-03  2.6333E-05  2.3429E-03    0.644
    54  103   1.2508  -2.5017   0.8756  0.25017   2.6795E-03 -8.7939E-04  2.8201E-03  -18.170
    55  103   1.2508  -2.5017   1.1258  0.25017  -2.3644E-03  4.3182E-05  2.3648E-03  178.954
    56  103   1.2508  -2.5017   1.3759  0.25017  -2.6782E-03  8.4865E-04  2.8094E-03  162.418
    57  103   1.2508  -2.5017   1.6261  0.25017   2.3816E-03 -1.0312E-04  2.3839E-03   -2.479
    58  103   1.2508  -2.5017   1.8763  0.25017   2.6837E-03 -7.8776E-04  2.7969E-03  -16.359
    59  103   1.2508  -2.5017   2.1264  0.25017  -2.4453E-03  1.9415E-04  2.4530E-03  175.460
    60  103   1.2508  -2.5017   2.3766  0.25017  -2.7227E-03  6.0815E-04  2.7898E-03  167.409
    61  104   3.7525  -2.5017  -2.3766  0.25017  -3.8451E-05  3.1179E-05  4.9504E-05  140.963
    62  104   3.7525  -2.5017  -2.1264  0.25017  -2.5064E-07  7.3266E-06  7.3309E-06   91.959
    63  104   3.7525  -2.5017  -1.8763  0.25017   9.1854E-05 -5.0386E-05  1.0477E-04  -28.747
    64  104   3.7525  -2.5017  -1.6261  0.25017   4.4682E-05 -1.5197E-05  4.7196E-05  -18.784
    65  104   3.7525  -2.5017  -1.3759  0.25017  -8.4749E-05  3.8695E-05  9.3165E-05  155.459
    66  104   3.7525  -2.5017  -1.1258  0.25017  -8.4003E-05 -1.7445E-05  8.5795E-05 -168.268
    67  104   3.7525  -2.5017  -0.8756  0.25017   2.7414E-05 -8.7575E-05  9.1765E-05  -72.618
    68  104   3.7525  -2.5017  -0.6254  0.25017   4.7999E-05 -1.9087E-05  5.1655E-05  -21.685
    69  104   3.7525  -2.5017  -0.3753  0.25017  -2.7047E-05  8.2999E-05  8.7294E-05  108.049
    70  104   3.7525  -2.5017  -0.1251  0.25017  -2.5486E-05  2.9055E-05  3.8649E-05  131.255
    71  104   3.7525  -2.5017   0.1251  0.25017   4.7983E-05 -9.6442E-05  1.0772E-04  -63.548
    72  104   3.7525  -2.5017   0.3753  0.25017   3.0811E-05 -8.0245E-05  8.5957E-05  -68.995
    73  104   3.7525  -2.5017   0.6254  0.25017  -5.4377E-05  3.4674E-05  6.4492E-05  147.476
    74  104   3.7525  -2.5017   0.8756  0.25017  -3.2478E-05  4.6661E-05  5.6852E-05  124.839
    75  104   3.7525  -2.5017   1.1258  0.25017   6.6094E-05 -2.9106E-05  7.2219E-05  -23.767
    76  104   3.7525  -2.5017   1.3759  0.25017   4.1881E-05 -2.0453E-05  4.6609E-05  -26.029
    77  104   3.7525  -2.5017   1.6261  0.25017  -8.3512E-05  5.8178E-05  1.0178E-04  145.137
    78  104   3.7525  -2.5017   1.8763  0.25017  -8.4281E-05  5.0926E-05  9.8472E-05  148.858
    79  104   3.7525  -2.5017   2.1264  0.25017   4.6268E-05 -2.7581E-05  5.3865E-05  -30.800
    80  104   3.7525  -2.5017   2.3766  0.25017   6.5524E-05 -3.2080E-05  7.2956E-05  -26.086
    81  201  -3.7525   0.0000  -2.3766  0.25017  -5.0954E-06 -3.1088E-05  3.1503E-05  -99.308
    82  201  -3.7525   0.0000  -2.1264  0.25017   8.0213E-07 -3.5221E-05  3.5230E-05  -88.695
    83  201  -3.7525   0.0000  -1.8763  0.25017   1.3054E-05  1.3593E-05  1.8846E-05   46.159
    84  201  -3.7525   0.0000  -1.6261  0.25017   8.7119E-06  1.6228E-05  1.8419E-05   61.772
    85  201  -3.7525   0.0000  -1.3759  0.25017  -7.4911E-06 -2.8038E-05  2.9022E-05 -104.958
    86  201  -3.7525   0.0000  -1.1258  0.25017  -1.5636E-05 -2.9706E-05  3.3570E-05 -117.760
    87  201  -3.7525   0.0000  -0.8756  0.25017  -1.5690E-05  9.2005E-06  1.8188E-05  149.612
    88  201  -3.7525   0.0000  -0.6254  0.25017  -1.8949E-05  3.7763E-06  1.9321E-05  168.729
    89  201  -3.7525   0.0000  -0.3753  0.25017  -1.9316E-05 -3.7565E-05  4.2240E-05 -117.212
    90  201  -3.7525   0.0000  -0.1251  0.25017  -5.6284E-06 -2.6854E-05  2.7437E-05 -101.838
    91  201  -3.7525   0.0000   0.1251  0.25017   1.1303E-05  2.5543E-05  2.7932E-05   66.130
    92  201  -3.7525   0.0000   0.3753  0.25017   1.4785E-05  2.6211E-05  3.0094E-05   60.574
    93  201  -3.7525   0.0000   0.6254  0.25017   1.0386E-05 -1.9861E-05  2.2413E-05  -62.394
    94  201  -3.7525   0.0000   0.8756  0.25017   9.3878E-06 -2.1168E-05  2.3156E-05  -66.083
    95  201  -3.7525   0.0000   1.1258  0.25017   3.0161E-06  1.9996E-05  2.0222E-05   81.422
    96  201  -3.7525   0.0000   1.3759  0.25017  -1.6666E-05  1.8143E-05  2.4636E-05  132.570
    97  201  -3.7525   0.0000   1.6261  0.25017  -3.0720E-05 -1.8250E-05  3.5732E-05 -149.287
    98  201  -3.7525   0.0000   1.8763  0.25017  -2.0368E-05 -2.5066E-06  2.0522E-05 -172.984
    99  201  -3.7525   0.0000   2.1264  0.25017  -6.1937E-07  4.8949E-05  4.8953E-05   90.725
   100  201  -3.7525   0.0000   2.3766  0.25017   3.6812E-06  3.5503E-05  3.5693E-05   84.080
   101  202  -1.2508   0.0000  -2.3766  0.25017   1.0409E-04  6.6654E-05  1.2360E-04   32.633
   102  202  -1.2508   0.0000  -2.1264  0.25017   1.1590E-04  6.8146E-05  1.3445E-04   30.454
   103  202  -1.2508   0.0000  -1.8763  0.25017  -8.2294E-05 -5.2011E-05  9.7352E-05 -147.706
   104  202  -1.2508   0.0000  -1.6261  0.25017  -1.1399E-04 -7.3415E-05  1.3559E-04 -147.217
   105  202  -1.2508   0.0000  -1.3759  0.25017   6.5274E-05  1.5393E-05  6.7064E-05   13.269
   106  202  -1.2508   0.0000  -1.1258  0.25017   9.3433E-05  2.1954E-05  9.5978E-05   13.223
   107  202  -1.2508   0.0000  -0.8756  0.25017  -8.3836E-05 -5.8728E-05  1.0236E-04 -144.989
   108  202  -1.2508   0.0000  -0.6254  0.25017  -1.1843E-04 -4.4846E-05  1.2664E-04 -159.260
   109  202  -1.2508   0.0000  -0.3753  0.25017   4.8228E-05  5.4420E-05  7.2715E-05   48.452
   110  202  -1.2508   0.0000  -0.1251  0.25017   8.6772E-05  4.5935E-05  9.8181E-05   27.896
   111  202  -1.2508   0.0000   0.1251  0.25017  -5.3349E-05 -6.5130E-05  8.4190E-05 -129.322
   112  202  -1.2508   0.0000   0.3753  0.25017  -5.9993E-05 -7.6842E-05  9.7488E-05 -127.981
   113  202  -1.2508   0.0000   0.6254  0.25017   9.0561E-05  2.3028E-05  9.3443E-05   14.267
   114  202  -1.2508   0.0000   0.8756  0.25017   7.8404E-05  4.3939E-05  8.9877E-05   29.267
   115  202  -1.2508   0.0000   1.1258  0.25017  -1.0080E-04 -2.9955E-05  1.0515E-04 -163.449
   116  202  -1.2508   0.0000   1.3759  0.25017  -1.0299E-04 -2.1986E-05  1.0531E-04 -167.949
   117  202  -1.2508   0.0000   1.6261  0.25017   7.8995E-05  6.9145E-05  1.0498E-04   41.196
   118  202  -1.2508   0.0000   1.8763  0.25017   8.4825E-05  5.9046E-05  1.0335E-04   34.842
   119  202  -1.2508   0.0000   2.1264  0.25017  -1.0144E-04 -4.8681E-05  1.1251E-04 -154.363
   120  202  -1.2508   0.0000   2.3766  0.25017  -1.0481E-04 -5.3490E-05  1.1767E-04 -152.963
   121  203   1.2508   0.0000  -2.3766  0.25017  -3.8857E-05  2.1376E-05  4.4349E-05  151.183
   122  203   1.2508   0.0000  -2.1264  0.25017   1.6123E-07 -1.3560E-06  1.3655E-06  -83.219
   123  203   1.2508   0.0000  -1.8763  0.25017   9.3050E-05 -4.1133E-05  1.0174E-04  -23.848
   124  203   1.2508   0.0000  -1.6261  0.25017   4.4034E-05 -7.1423E-06  4.4610E-05   -9.213
   125  203   1.2508   0.0000  -1.3759  0.25017  -8.8007E-05  2.8247E-05  9.2429E-05  162.206
   126  203   1.2508   0.0000  -1.1258  0.25017  -8.7255E-05 -2.9272E-05  9.2034E-05 -161.455
   127  203   1.2508   0.0000  -0.8756  0.25017   2.5735E-05 -8.3579E-05  8.7451E-05  -72.886
   128  203   1.2508   0.0000  -0.6254  0.25017   4.6162E-05 -1.3810E-05  4.8184E-05  -16.655
   129  203   1.2508   0.0000  -0.3753  0.25017  -3.0007E-05  7.5028E-05  8.0806E-05  111.798
   130  203   1.2508   0.0000  -0.1251  0.25017  -2.7323E-05  2.2575E-05  3.5443E-05  140.435
   131  203   1.2508   0.0000   0.1251  0.25017   4.8809E-05 -8.8836E-05  1.0136E-04  -61.214
   132  203   1.2508   0.0000   0.3753  0.25017   3.2394E-05 -7.4888E-05  8.1594E-05  -66.608
   133  203   1.2508   0.0000   0.6254  0.25017  -5.3887E-05  2.5606E-05  5.9661E-05  154.584
   134  203   1.2508   0.0000   0.8756  0.25017  -3.2103E-05  4.1109E-05  5.2159E-05  127.987
   135  203   1.2508   0.0000   1.1258  0.25017   6.7158E-05 -1.8415E-05  6.9637E-05  -15.334
   136  203   1.2508   0.0000   1.3759  0.25017   4.1875E-05 -1.2786E-05  4.3783E-05  -16.979
   137  203   1.2508   0.0000   1.6261  0.25017  -8.5910E-05  4.8734E-05  9.8770E-05  150.435
   138  203   1.2508   0.0000   1.8763  0.25017  -8.7422E-05  4.4323E-05  9.8016E-05  153.115
   139  203   1.2508   0.0000   2.1264  0.25017   4.4518E-05 -1.5463E-05  4.7128E-05  -19.155
   140  203   1.2508   0.0000   2.3766  0.25017   6.5169E-05 -2.1529E-05  6.8633E-05  -18.282
   141  204   3.7525   0.0000  -2.3766  0.25017   1.0426E-04  6.6358E-05  1.2358E-04   32.477
   142  204   3.7525   0.0000  -2.1264  0.25017   1.1551E-04  6.7371E-05  1.3372E-04   30.253
   143  204   3.7525   0.0000  -1.8763  0.25017  -8.2945E-05 -5.2927E-05  9.8393E-05 -147.458
   144  204   3.7525   0.0000  -1.6261  0.25017  -1.1363E-04 -7.4475E-05  1.3586E-04 -146.759
   145  204   3.7525   0.0000  -1.3759  0.25017   6.6622E-05  1.3902E-05  6.8057E-05   11.786
   146  204   3.7525   0.0000  -1.1258  0.25017   9.4705E-05  2.0300E-05  9.6857E-05   12.098
   147  204   3.7525   0.0000  -0.8756  0.25017  -8.2937E-05 -5.9782E-05  1.0224E-04 -144.216
   148  204   3.7525   0.0000  -0.6254  0.25017  -1.1763E-04 -4.5224E-05  1.2602E-04 -158.970
   149  204   3.7525   0.0000  -0.3753  0.25017   4.8577E-05  5.3954E-05  7.2600E-05   48.002
   150  204   3.7525   0.0000  -0.1251  0.25017   8.6373E-05  4.5115E-05  9.7446E-05   27.579
   151  204   3.7525   0.0000   0.1251  0.25017  -5.3741E-05 -6.5639E-05  8.4832E-05 -129.308
   152  204   3.7525   0.0000   0.3753  0.25017  -5.9872E-05 -7.6732E-05  9.7326E-05 -127.964
   153  204   3.7525   0.0000   0.6254  0.25017   9.0183E-05  2.3178E-05  9.3113E-05   14.414
   154  204   3.7525   0.0000   0.8756  0.25017   7.6666E-05  4.3893E-05  8.8341E-05   29.792
   155  204   3.7525   0.0000   1.1258  0.25017  -1.0278E-04 -2.9574E-05  1.0695E-04 -163.947
   156  204   3.7525   0.0000   1.3759  0.25017  -1.0373E-04 -2.1060E-05  1.0584E-04 -168.523
   157  204   3.7525   0.0000   1.6261  0.25017   7.9050E-05  6.9623E-05  1.0534E-04   41.372
   158  204   3.7525   0.0000   1.8763  0.25017   8.4394E-05  5.8522E-05  1.0270E-04   34.739
   159  204   3.7525   0.0000   2.1264  0.25017  -1.0217E-04 -4.9381E-05  1.1348E-04 -154.205
   160  204   3.7525   0.0000   2.3766  0.25017  -1.0499E-04 -5.3625E-05  1.1789E-04 -152.943
   161  301  -3.7525   2.5017  -2.3766  0.25017  -3.6985E-05  5.2255E-06  3.7353E-05  171.958
   162  301  -3.7525   2.5017  -2.1264  0.25017  -3.8761E-05  7.3807E-06  3.9458E-05  169.219
   163  301  -3.7525   2.5017  -1.8763  0.25017   2.7343E-05  4.8457E-07  2.7347E-05    1.015
   164  301  -3.7525   2.5017  -1.6261  0.25017   3.1088E-05  4.3154E-07  3.1091E-05    0.795
   165  301  -3.7525   2.5017  -1.3759  0.25017  -2.8396E-05  9.2261E-06  2.9858E-05  162.001
   166  301  -3.7525   2.5017  -1.1258  0.25017  -2.7174E-05  1.3344E-05  3.0274E-05  153.847
   167  301  -3.7525   2.5017  -0.8756  0.25017   3.3529E-05  1.0966E-05  3.5277E-05   18.111
   168  301  -3.7525   2.5017  -0.6254  0.25017   3.1066E-05  1.1701E-05  3.3197E-05   20.638
   169  301  -3.7525   2.5017  -0.3753  0.25017  -3.1526E-05  1.3146E-05  3.4157E-05  157.365
   170  301  -3.7525   2.5017  -0.1251  0.25017  -3.0625E-05  5.9355E-06  3.1195E-05  169.031
   171  301  -3.7525   2.5017   0.1251  0.25017   3.1004E-05 -3.9777E-06  3.1258E-05   -7.311
   172  301  -3.7525   2.5017   0.3753  0.25017   2.9572E-05 -4.8754E-06  2.9971E-05   -9.362
   173  301  -3.7525   2.5017   0.6254  0.25017  -3.2410E-05 -1.9789E-06  3.2470E-05 -176.506
   174  301  -3.7525   2.5017   0.8756  0.25017  -3.1066E-05 -4.9282E-06  3.1455E-05 -170.986
   175  301  -3.7525   2.5017   1.1258  0.25017   3.1582E-05 -5.7763E-06  3.2106E-05  -10.365
   176  301  -3.7525   2.5017   1.3759  0.25017   3.2608E-05  3.9314E-06  3.2844E-05    6.875
   177  301  -3.7525   2.5017   1.6261  0.25017  -2.4572E-05  1.0528E-05  2.6732E-05  156.807
   178  301  -3.7525   2.5017   1.8763  0.25017  -1.6846E-05  9.8292E-07  1.6875E-05  176.661
   179  301  -3.7525   2.5017   2.1264  0.25017   4.8458E-05 -1.0106E-05  4.9501E-05  -11.781
   180  301  -3.7525   2.5017   2.3766  0.25017   4.0298E-05 -5.4442E-06  4.0664E-05   -7.694
   181  302  -1.2508   2.5017  -2.3766  0.25017  -1.3498E-06 -3.7004E-05  3.7029E-05  -92.089
   182  302  -1.2508   2.5017  -2.1264  0.25017   5.1519E-06 -4.1726E-05  4.2043E-05  -82.961
   183  302  -1.2508   2.5017  -1.8763  0.25017   1.1708E-05  1.7895E-05  2.1385E-05   56.806
   184  302  -1.2508   2.5017  -1.6261  0.25017   7.0311E-06  2.2092E-05  2.3184E-05   72.346
   185  302  -1.2508   2.5017  -1.3759  0.25017  -4.2781E-06 -3.1542E-05  3.1831E-05  -97.724
   186  302  -1.2508   2.5017  -1.1258  0.25017  -1.3249E-05 -3.4283E-05  3.6754E-05 -111.130
   187  302  -1.2508   2.5017  -0.8756  0.25017  -1.9315E-05  1.3320E-05  2.3462E-05  145.410
   188  302  -1.2508   2.5017  -0.6254  0.25017  -2.2460E-05  7.9608E-06  2.3829E-05  160.483
   189  302  -1.2508   2.5017  -0.3753  0.25017  -1.6841E-05 -4.2597E-05  4.5806E-05 -111.571
   190  302  -1.2508   2.5017  -0.1251  0.25017  -2.7658E-06 -3.1857E-05  3.1977E-05  -94.962
   191  302  -1.2508   2.5017   0.1251  0.25017   8.7787E-06  3.0142E-05  3.1394E-05   73.762
   192  302  -1.2508   2.5017   0.3753  0.25017   1.2422E-05  3.1234E-05  3.3614E-05   68.312
   193  302  -1.2508   2.5017   0.6254  0.25017   1.4018E-05 -2.3988E-05  2.7784E-05  -59.700
   194  302  -1.2508   2.5017   0.8756  0.25017   1.3357E-05 -2.5510E-05  2.8795E-05  -62.363
   195  302  -1.2508   2.5017   1.1258  0.25017   9.2633E-07  2.4409E-05  2.4426E-05   87.827
   196  302  -1.2508   2.5017   1.3759  0.25017  -1.9880E-05  2.1873E-05  2.9558E-05  132.267
   197  302  -1.2508   2.5017   1.6261  0.25017  -2.9054E-05 -2.3868E-05  3.7601E-05 -140.596
   198  302  -1.2508   2.5017   1.8763  0.25017  -1.8734E-05 -6.9213E-06  1.9971E-05 -159.723
   199  302  -1.2508   2.5017   2.1264  0.25017  -4.5997E-06  5.5288E-05  5.5479E-05   94.756
   200  302  -1.2508   2.5017   2.3766  0.25017   4.8563E-08  4.1461E-05  4.1461E-05   89.933
   201  303   1.2508   2.5017  -2.3766  0.25017   3.6853E-05  9.2529E-06  3.7997E-05   14.094
   202  303   1.2508   2.5017  -2.1264  0.25017   2.9889E-05  1.5321E-05  3.3587E-05   27.140
   203  303   1.2508   2.5017  -1.8763  0.25017  -4.3821E-05  8.9099E-06  4.4717E-05  168.507
   204  303   1.2508   2.5017  -1.6261  0.25017  -4.6053E-05  4.7065E-06  4.6293E-05  174.165
   205  303   1.2508   2.5017  -1.3759  0.25017   2.2007E-05  6.3910E-06  2.2916E-05   16.194
   206  303   1.2508   2.5017  -1.1258  0.25017   3.0581E-05  7.1910E-06  3.1415E-05   13.232
   207  303   1.2508   2.5017  -0.8756  0.25017  -2.4633E-05  6.9309E-06  2.5589E-05  164.285
   208  303   1.2508   2.5017  -0.6254  0.25017  -2.3681E-05  1.0643E-05  2.5963E-05  155.800
   209  303   1.2508   2.5017  -0.3753  0.25017   3.2859E-05  1.4166E-05  3.5783E-05   23.321
   210  303   1.2508   2.5017  -0.1251  0.25017   2.6328E-05  8.1158E-06  2.7551E-05   17.132
   211  303   1.2508   2.5017   0.1251  0.25017  -3.9046E-05 -4.0948E-06  3.9260E-05 -174.013
   212  303   1.2508   2.5017   0.3753  0.25017  -4.1264E-05 -7.9191E-06  4.2017E-05 -169.136
   213  303   1.2508   2.5017   0.6254  0.25017   1.8533E-05  5.5914E-07  1.8541E-05    1.728
   214  303   1.2508   2.5017   0.8756  0.25017   2.1882E-05  9.1024E-06  2.3700E-05   22.586
   215  303   1.2508   2.5017   1.1258  0.25017  -2.7203E-05  8.8239E-06  2.8598E-05  162.028
   216  303   1.2508   2.5017   1.3759  0.25017  -1.1649E-05  4.4055E-06  1.2454E-05  159.283
   217  303   1.2508   2.5017   1.6261  0.25017   5.6019E-05  2.2080E-07  5.6019E-05    0.226
   218  303   1.2508   2.5017   1.8763  0.25017   4.6851E-05 -7.2125E-06  4.7403E-05   -8.752
   219  303   1.2508   2.5017   2.1264  0.25017  -3.0913E-05 -1.4916E-05  3.4324E-05 -154.242
   220  303   1.2508   2.5017   2.3766  0.25017  -3.6842E-05 -9.3969E-06  3.8021E-05 -165.691
   221  304   3.7525   2.5017  -2.3766  0.25017  -4.0984E-06 -3.6653E-05  3.6882E-05  -96.380
   222  304   3.7525   2.5017  -2.1264  0.25017   2.5160E-06 -4.1473E-05  4.1549E-05  -86.528
   223  304   3.7525   2.5017  -1.8763  0.25017   1.4282E-05  1.7329E-05  2.2456E-05   50.505
   224  304   3.7525   2.5017  -1.6261  0.25017   9.8368E-06  2.1596E-05  2.3730E-05   65.511
   225  304   3.7525   2.5017  -1.3759  0.25017  -6.3472E-06 -3.1277E-05  3.1915E-05 -101.471
   226  304   3.7525   2.5017  -1.1258  0.25017  -1.5581E-05 -3.4201E-05  3.7583E-05 -114.492
   227  304   3.7525   2.5017  -0.8756  0.25017  -1.6945E-05  1.2703E-05  2.1178E-05  143.143
   228  304   3.7525   2.5017  -0.6254  0.25017  -1.9903E-05  7.9058E-06  2.1416E-05  158.336
   229  304   3.7525   2.5017  -0.3753  0.25017  -1.8990E-05 -4.1526E-05  4.5662E-05 -114.575
   230  304   3.7525   2.5017  -0.1251  0.25017  -5.1210E-06 -3.1296E-05  3.1712E-05  -99.293
   231  304   3.7525   2.5017   0.1251  0.25017   1.1116E-05  2.9123E-05  3.1173E-05   69.108
   232  304   3.7525   2.5017   0.3753  0.25017   1.4961E-05  3.0060E-05  3.3577E-05   63.540
   233  304   3.7525   2.5017   0.6254  0.25017   1.1825E-05 -2.4005E-05  2.6759E-05  -63.776
   234  304   3.7525   2.5017   0.8756  0.25017   1.0909E-05 -2.5297E-05  2.7549E-05  -66.673
   235  304   3.7525   2.5017   1.1258  0.25017   3.1747E-06  2.3879E-05  2.4089E-05   82.427
   236  304   3.7525   2.5017   1.3759  0.25017  -1.7467E-05  2.1444E-05  2.7658E-05  129.165
   237  304   3.7525   2.5017   1.6261  0.25017  -3.1524E-05 -2.3581E-05  3.9368E-05 -143.202
   238  304   3.7525   2.5017   1.8763  0.25017  -2.1441E-05 -6.9769E-06  2.2548E-05 -161.975
   239  304   3.7525   2.5017   2.1264  0.25017  -2.2092E-06  5.4356E-05  5.4401E-05   92.327
   240  304   3.7525   2.5017   2.3766  0.25017   2.8017E-06  4.0892E-05  4.0988E-05   86.080



                                        - - - POWER BUDGET - - -

                                           INPUT POWER   = 1.4816E-03 WATTS
                                           RADIATED POWER= 1.4816E-03 WATTS
                                           STRUCTURE LOSS= 0.0000E+00 WATTS
                                           NETWORK LOSS  = 0.0000E+00 WATTS
                                           EFFICIENCY    = 100.00 PERCENT



                                                - - - RADIATION PATTERNS - - -

  - - ANGLES - -       - DIRECTIVE GAINS -       - - - POLARIZATION - - -    - - - E(THETA) - - -    - - - E(PHI) - - -
  THETA     PHI        VERT.   HOR.    TOTAL      AXIAL     TILT   SENSE     MAGNITUDE    PHASE      MAGNITUDE    PHASE 
 DEGREES  DEGREES       DB      DB      DB        RATIO     DEG.              VOLTS/M    DEGREES      VOLTS/M    DEGREES
    0.00     0.00    -999.99 -999.99 -999.99    0.00000     0.00            0.00000E+00     0.00    0.00000E+00     0.00
    5.00     0.00      -5.41 -999.99   -5.41    0.00000     0.00  LINEAR    1.59831E-01    21.62    0.00000E+00     0.00
   10.00     0.00       0.72 -999.99    0.72    0.00000     0.00  LINEAR    3.24000E-01    55.61    0.00000E+00     0.00
   15.00     0.00       4.19 -999.99    4.19    0.00000     0.00  LINEAR    4.82992E-01    95.57    0.00000E+00     0.00
   20.00     0.00       6.50 -999.99    6.50    0.00000     0.00  LINEAR    6.29608E-01   137.17    0.00000E+00     0.00
   25.00     0.00       7.06 -999.99    7.06    0.00000     0.00  LINEAR    6.71567E-01   174.21    0.00000E+00     0.00
   30.00     0.00       5.77 -999.99    5.77    0.00000     0.00  LINEAR    5.79004E-01  -153.71    0.00000E+00     0.00
   35.00     0.00       0.88 -999.99    0.88    0.00000     0.00  LINEAR    3.29995E-01  -124.38    0.00000E+00     0.00
   40.00     0.00     -37.84 -999.99  -37.84    0.00000     0.00  LINEAR    3.82045E-03  -150.26    0.00000E+00     0.00
   45.00     0.00      -3.09 -999.99   -3.09    0.00000     0.00  LINEAR    2.08814E-01   120.80    0.00000E+00     0.00
   50.00     0.00      -7.08 -999.99   -7.08    0.00000     0.00  LINEAR    1.31894E-01   145.36    0.00000E+00     0.00
   55.00     0.00      -5.44 -999.99   -5.44    0.00000     0.00  LINEAR    1.59379E-01     4.00    0.00000E+00     0.00
   60.00     0.00       1.48 -999.99    1.48    0.00000     0.00  LINEAR    3.53253E-01    20.62    0.00000E+00     0.00
   65.00     0.00      -2.34 -999.99   -2.34    0.00000     0.00  LINEAR    2.27594E-01    39.55    0.00000E+00     0.00
   70.00     0.00     -11.85 -999.99  -11.85    0.00000     0.00  LINEAR    7.62010E-02  -157.39    0.00000E+00     0.00
   75.00     0.00      -6.21 -999.99   -6.21    0.00000     0.00  LINEAR    1.45759E-01  -133.79    0.00000E+00     0.00
   80.00     0.00      -9.52 -999.99   -9.52    0.00000     0.00  LINEAR    9.96162E-02    82.02    0.00000E+00     0.00
   85.00     0.00      -0.84 -999.99   -0.84    0.00000     0.00  LINEAR    2.70662E-01    81.44    0.00000E+00     0.00
   90.00     0.00      -8.39 -999.99   -8.39    0.00000     0.00  LINEAR    1.13397E-01   111.10    0.00000E+00     0.00
    0.00     5.00    -999.99 -999.99 -999.99    0.00000     0.00            0.00000E+00     0.00    0.00000E+00     0.00
    5.00     5.00      -5.46 -999.99   -5.46    0.00000     0.00  LINEAR    1.58990E-01    14.83    0.00000E+00     0.00
   10.00     5.00       0.80 -999.99    0.80    0.00000     0.00  LINEAR    3.26765E-01    41.10    0.00000E+00     0.00
   15.00     5.00       4.13 -999.99    4.13    0.00000     0.00  LINEAR    4.79675E-01    73.77    0.00000E+00     0.00
   20.00     5.00       6.36 -999.99    6.36    0.00000     0.00  LINEAR    6.19720E-01   110.80    0.00000E+00     0.00
   25.00     5.00       6.83 -999.99    6.83    0.00000     0.00  LINEAR    6.54376E-01   140.65    0.00000E+00     0.00
   30.00     5.00       5.56 -999.99    5.56    0.00000     0.00  LINEAR    5.65290E-01   166.06    0.00000E+00     0.00
   35.00     5.00       0.81 -999.99    0.81    0.00000     0.00  LINEAR    3.27214E-01  -170.18    0.00000E+00     0.00
   40.00     5.00     -25.52 -999.99  -25.52    0.00000     0.00  LINEAR    1.57895E-02   -23.82    0.00000E+00     0.00
   45.00     5.00      -3.30 -999.99   -3.30    0.00000     0.00  LINEAR    2.03931E-01    64.56    0.00000E+00     0.00
   50.00     5.00      -7.24 -999.99   -7.24    0.00000     0.00  LINEAR    1.29472E-01    85.48    0.00000E+00     0.00
   55.00     5.00      -6.16 -999.99   -6.16    0.00000     0.00  LINEAR    1.46637E-01   -65.45    0.00000E+00     0.00
   60.00     5.00       0.44 -999.99    0.44    0.00000     0.00  LINEAR    3.13596E-01   -52.49    0.00000E+00     0.00
   65.00     5.00      -3.25 -999.99   -3.25    0.00000     0.00  LINEAR    2.05105E-01   -31.40    0.00000E+00     0.00
   70.00     5.00      -9.38 -999.99   -9.38    0.00000     0.00  LINEAR    1.01198E-01   123.06    0.00000E+00     0.00
   75.00     5.00      -5.19 -999.99   -5.19    0.00000     0.00  LINEAR    1.63952E-01   147.68    0.00000E+00     0.00
   80.00     5.00      -7.02 -999.99   -7.02    0.00000     0.00  LINEAR    1.32808E-01   -11.81    0.00000E+00     0.00
   85.00     5.00       0.92 -999.99    0.92    0.00000     0.00  LINEAR    3.31202E-01    -8.30    0.00000E+00     0.00
   90.00     5.00      -7.95 -999.99   -7.95    0.00000     0.00  LINEAR    1.19407E-01    18.79    0.00000E+00     0.00
    0.00    10.00    -999.99 -999.99 -999.99    0.00000     0.00            0.00000E+00     0.00    0.00000E+00     0.00
    5.00    10.00      -5.51 -999.99   -5.51    0.00000     0.00  LINEAR    1.57988E-01     7.77    0.00000E+00     0.00
   10.00    10.00       0.89 -999.99    0.89    0.00000     0.00  LINEAR    3.30362E-01    26.28    0.00000E+00     0.00
   15.00    10.00       4.19 -999.99    4.19    0.00000     0.00  LINEAR    4.82642E-01    50.64    0.00000E+00     0.00
   20.00    10.00       6.08 -999.99    6.08    0.00000     0.00  LINEAR    6.00411E-01    82.56    0.00000E+00     0.00
   25.00    10.00       6.58 -999.99    6.58    0.00000     0.00  LINEAR    6.36077E-01   105.16    0.00000E+00     0.00
   30.00    10.00       5.42 -999.99    5.42    0.00000     0.00  LINEAR    5.56482E-01   123.14    0.00000E+00     0.00
   35.00    10.00       0.67 -999.99    0.67    0.00000     0.00  LINEAR    3.22036E-01   142.01    0.00000E+00     0.00
   40.00    10.00     -16.25 -999.99  -16.25    0.00000     0.00  LINEAR    4.58989E-02   -36.52    0.00000E+00     0.00
   45.00    10.00      -2.82 -999.99   -2.82    0.00000     0.00  LINEAR    2.15510E-01     1.58    0.00000E+00     0.00
   50.00    10.00      -7.17 -999.99   -7.17    0.00000     0.00  LINEAR    1.30604E-01    21.59    0.00000E+00     0.00
   55.00    10.00      -6.43 -999.99   -6.43    0.00000     0.00  LINEAR    1.42208E-01  -140.46    0.00000E+00     0.00
   60.00    10.00       1.01 -999.99    1.01    0.00000     0.00  LINEAR    3.34676E-01  -132.26    0.00000E+00     0.00
   65.00    10.00      -3.26 -999.99   -3.26    0.00000     0.00  LINEAR    2.04708E-01  -114.17    0.00000E+00     0.00
   70.00    10.00      -9.23 -999.99   -9.23    0.00000     0.00  LINEAR    1.03041E-01    53.69    0.00000E+00     0.00
   75.00    10.00      -5.02 -999.99   -5.02    0.00000     0.00  LINEAR    1.67211E-01    73.65    0.00000E+00     0.00
   80.00    10.00      -7.60 -999.99   -7.60    0.00000     0.00  LINEAR    1.24268E-01   -76.35    0.00000E+00     0.00
   85.00    10.00       0.73 -999.99    0.73    0.00000     0.00  LINEAR    3.24106E-01   -77.75    0.00000E+00     0.00
   90.00    10.00      -8.12 -999.99   -8.12    0.00000     0.00  LINEAR    1.17028E-01   -54.25    0.00000E+00     0.00
    0.00    15.00    -999.99 -999.99 -999.99    0.00000     0.00            0.00000E+00     0.00    0.00000E+00     0.00
    5.00    15.00      -5.58 -999.99   -5.58    0.00000     0.00  LINEAR    1.56846E-01     0.50    0.00000E+00     0.00
   10.00    15.00       1.00 -999.99    1.00    0.00000     0.00  LINEAR    3.34266E-01    11.34    0.00000E+00     0.00
   15.00    15.00       4.42 -999.99    4.42    0.00000     0.00  LINEAR    4.95716E-01    27.00    0.00000E+00     0.00
   20.00    15.00       5.83 -999.99    5.83    0.00000     0.00  LINEAR    5.82954E-01    51.81    0.00000E+00     0.00
   25.00    15.00       6.38 -999.99    6.38    0.00000     0.00  LINEAR    6.21321E-01    67.87    0.00000E+00     0.00
   30.00    15.00       5.53 -999.99    5.53    0.00000     0.00  LINEAR    5.63167E-01    79.20    0.00000E+00     0.00
   35.00    15.00       0.64 -999.99    0.64    0.00000     0.00  LINEAR    3.20914E-01    92.13    0.00000E+00     0.00
   40.00    15.00     -12.64 -999.99  -12.64    0.00000     0.00  LINEAR    6.95188E-02   -50.93    0.00000E+00     0.00
   45.00    15.00      -1.63 -999.99   -1.63    0.00000     0.00  LINEAR    2.47136E-01   -54.39    0.00000E+00     0.00
   50.00    15.00      -6.79 -999.99   -6.79    0.00000     0.00  LINEAR    1.36319E-01   -41.13    0.00000E+00     0.00
   55.00    15.00      -5.08 -999.99   -5.08    0.00000     0.00  LINEAR    1.66141E-01   144.37    0.00000E+00     0.00
   60.00    15.00       2.25 -999.99    2.25    0.00000     0.00  LINEAR    3.86046E-01   155.85    0.00000E+00     0.00
   65.00    15.00      -2.08 -999.99   -2.08    0.00000     0.00  LINEAR    2.34667E-01   169.39    0.00000E+00     0.00
   70.00    15.00      -9.86 -999.99   -9.86    0.00000     0.00  LINEAR    9.58317E-02   -24.81    0.00000E+00     0.00
   75.00    15.00      -5.96 -999.99   -5.96    0.00000     0.00  LINEAR    1.50114E-01    -5.83    0.00000E+00     0.00
   80.00    15.00      -7.80 -999.99   -7.80    0.00000     0.00  LINEAR    1.21356E-01  -176.09    0.00000E+00     0.00
   85.00    15.00       0.13 -999.99    0.13    0.00000     0.00  LINEAR    3.02711E-01  -170.95    0.00000E+00     0.00
   90.00    15.00      -8.12 -999.99   -8.12    0.00000     0.00  LINEAR    1.17045E-01  -153.51    0.00000E+00     0.00
    0.00    20.00    -999.99 -999.99 -999.99    0.00000     0.00            0.00000E+00     0.00    0.00000E+00     0.00
    5.00    20.00      -5.65 -999.99   -5.65    0.00000     0.00  LINEAR    1.55604E-01    -6.96    0.00000E+00     0.00
   10.00    20.00       1.08 -999.99    1.08    0.00000     0.00  LINEAR    3.37608E-01    -3.56    0.00000E+00     0.00
   15.00    20.00       4.79 -999.99    4.79    0.00000     0.00  LINEAR    5.17611E-01     3.88    0.00000E+00     0.00
   20.00    20.00       5.85 -999.99    5.85    0.00000     0.00  LINEAR    5.84657E-01    19.28    0.00000E+00     0.00
   25.00    20.00       6.33 -999.99    6.33    0.00000     0.00  LINEAR    6.17682E-01    29.05    0.00000E+00     0.00
   30.00    20.00       5.70 -999.99    5.70    0.00000     0.00  LINEAR    5.74826E-01    35.86    0.00000E+00     0.00
   35.00    20.00       0.81 -999.99    0.81    0.00000     0.00  LINEAR    3.27337E-01    42.19    0.00000E+00     0.00
   40.00    20.00     -12.45 -999.99  -12.45    0.00000     0.00  LINEAR    7.11276E-02   -70.55    0.00000E+00     0.00
   45.00    20.00      -1.88 -999.99   -1.88    0.00000     0.00  LINEAR    2.40073E-01  -107.47    0.00000E+00     0.00
   50.00    20.00      -6.89 -999.99   -6.89    0.00000     0.00  LINEAR    1.34886E-01  -103.38    0.00000E+00     0.00
   55.00    20.00      -4.24 -999.99   -4.24    0.00000     0.00  LINEAR    1.82975E-01    81.49    0.00000E+00     0.00
   60.00    20.00       2.69 -999.99    2.69    0.00000     0.00  LINEAR    4.06309E-01    89.58    0.00000E+00     0.00
   65.00    20.00      -1.50 -999.99   -1.50    0.00000     0.00  LINEAR    2.50731E-01   101.42    0.00000E+00     0.00
   70.00    20.00      -9.46 -999.99   -9.46    0.00000     0.00  LINEAR    1.00309E-01  -116.19    0.00000E+00     0.00
   75.00    20.00      -6.24 -999.99   -6.24    0.00000     0.00  LINEAR    1.45230E-01   -94.30    0.00000E+00     0.00
   80.00    20.00      -6.72 -999.99   -6.72    0.00000     0.00  LINEAR    1.37548E-01   104.18    0.00000E+00     0.00
   85.00    20.00       0.68 -999.99    0.68    0.00000     0.00  LINEAR    3.22480E-01   105.72    0.00000E+00     0.00
   90.00    20.00      -6.80 -999.99   -6.80    0.00000     0.00  LINEAR    1.36264E-01   128.04    0.00000E+00     0.00
    0.00    25.00    -999.99 -999.99 -999.99    0.00000     0.00            0.00000E+00     0.00    0.00000E+00     0.00
    5.00    25.00      -5.72 -999.99   -5.72    0.00000     0.00  LINEAR    1.54318E-01   -14.54    0.00000E+00     0.00
   10.00    25.00       1.13 -999.99    1.13    0.00000     0.00  LINEAR    3.39501E-01   -18.40    0.00000E+00     0.00
   15.00    25.00       5.19 -999.99    5.19    0.00000     0.00  LINEAR    5.41493E-01   -18.12    0.00000E+00     0.00
   20.00    25.00       6.23 -999.99    6.23    0.00000     0.00  LINEAR    6.10422E-01   -12.68    0.00000E+00     0.00
   25.00    25.00       6.57 -999.99    6.57    0.00000     0.00  LINEAR    6.34732E-01   -10.04    0.00000E+00     0.00
   30.00    25.00       5.81 -999.99    5.81    0.00000     0.00  LINEAR    5.81527E-01    -7.35    0.00000E+00     0.00
   35.00    25.00       0.96 -999.99    0.96    0.00000     0.00  LINEAR    3.32834E-01    -6.71    0.00000E+00     0.00
   40.00    25.00     -14.82 -999.99  -14.82    0.00000     0.00  LINEAR    5.41264E-02   -97.40    0.00000E+00     0.00
   45.00    25.00      -2.85 -999.99   -2.85    0.00000     0.00  LINEAR    2.14773E-01  -169.85    0.00000E+00     0.00
   50.00    25.00      -7.33 -999.99   -7.33    0.00000     0.00  LINEAR    1.28187E-01  -170.89    0.00000E+00     0.00
   55.00    25.00      -5.14 -999.99   -5.14    0.00000     0.00  LINEAR    1.64951E-01    11.68    0.00000E+00     0.00
   60.00    25.00       1.64 -999.99    1.64    0.00000     0.00  LINEAR    3.60184E-01    19.03    0.00000E+00     0.00
   65.00    25.00      -3.02 -999.99   -3.02    0.00000     0.00  LINEAR    2.10425E-01    32.75    0.00000E+00     0.00
   70.00    25.00      -7.74 -999.99   -7.74    0.00000     0.00  LINEAR    1.22195E-01   167.19    0.00000E+00     0.00
   75.00    25.00      -6.42 -999.99   -6.42    0.00000     0.00  LINEAR    1.42388E-01  -174.28    0.00000E+00     0.00
   80.00    25.00      -6.26 -999.99   -6.26    0.00000     0.00  LINEAR    1.45031E-01    15.24    0.00000E+00     0.00
   85.00    25.00       0.75 -999.99    0.75    0.00000     0.00  LINEAR    3.25111E-01    17.90    0.00000E+00     0.00
   90.00    25.00      -6.91 -999.99   -6.91    0.00000     0.00  LINEAR    1.34570E-01    40.04    0.00000E+00     0.00
    0.00    30.00    -999.99 -999.99 -999.99    0.00000     0.00            0.00000E+00     0.00    0.00000E+00     0.00
    5.00    30.00      -5.79 -999.99   -5.79    0.00000     0.00  LINEAR    1.53055E-01   -22.18    0.00000E+00     0.00
   10.00    30.00       1.13 -999.99    1.13    0.00000     0.00  LINEAR    3.39416E-01   -33.19    0.00000E+00     0.00
   15.00    30.00       5.46 -999.99    5.46    0.00000     0.00  LINEAR    5.58938E-01   -39.07    0.00000E+00     0.00
   20.00    30.00       6.68 -999.99    6.68    0.00000     0.00  LINEAR    6.43231E-01   -42.41    0.00000E+00     0.00
   25.00    30.00       6.98 -999.99    6.98    0.00000     0.00  LINEAR    6.65833E-01   -47.38    0.00000E+00     0.00
   30.00    30.00       5.93 -999.99    5.93    0.00000     0.00  LINEAR    5.90130E-01   -50.54    0.00000E+00     0.00
   35.00    30.00       1.01 -999.99    1.01    0.00000     0.00  LINEAR    3.34646E-01   -55.12    0.00000E+00     0.00
   40.00    30.00     -19.92 -999.99  -19.92    0.00000     0.00  LINEAR    3.00752E-02  -126.40    0.00000E+00     0.00
   45.00    30.00      -3.20 -999.99   -3.20    0.00000     0.00  LINEAR    2.06230E-01   122.43    0.00000E+00     0.00
   50.00    30.00      -7.09 -999.99   -7.09    0.00000     0.00  LINEAR    1.31780E-01   115.46    0.00000E+00     0.00
   55.00    30.00      -5.41 -999.99   -5.41    0.00000     0.00  LINEAR    1.59962E-01   -60.81    0.00000E+00     0.00
   60.00    30.00       1.20 -999.99    1.20    0.00000     0.00  LINEAR    3.42348E-01   -60.41    0.00000E+00     0.00
   65.00    30.00      -4.32 -999.99   -4.32    0.00000     0.00  LINEAR    1.81241E-01   -58.35    0.00000E+00     0.00
   70.00    30.00      -8.67 -999.99   -8.67    0.00000     0.00  LINEAR    1.09848E-01   100.99    0.00000E+00     0.00
   75.00    30.00      -7.38 -999.99   -7.38    0.00000     0.00  LINEAR    1.27492E-01    99.32    0.00000E+00     0.00
   80.00    30.00      -5.72 -999.99   -5.72    0.00000     0.00  LINEAR    1.54308E-01   -66.66    0.00000E+00     0.00
   85.00    30.00       0.80 -999.99    0.80    0.00000     0.00  LINEAR    3.26631E-01   -68.48    0.00000E+00     0.00
   90.00    30.00      -6.47 -999.99   -6.47    0.00000     0.00  LINEAR    1.41562E-01   -45.56    0.00000E+00     0.00
    0.00    35.00    -999.99 -999.99 -999.99    0.00000     0.00            0.00000E+00     0.00    0.00000E+00     0.00
    5.00    35.00      -5.86 -999.99   -5.86    0.00000     0.00  LINEAR    1.51882E-01   -29.83    0.00000E+00     0.00
   10.00    35.00       1.08 -999.99    1.08    0.00000     0.00  LINEAR    3.37430E-01   -47.98    0.00000E+00     0.00
   15.00    35.00       5.55 -999.99    5.55    0.00000     0.00  LINEAR    5.64818E-01   -59.49    0.00000E+00     0.00
   20.00    35.00       6.92 -999.99    6.92    0.00000     0.00  LINEAR    6.61230E-01   -70.43    0.00000E+00     0.00
   25.00    35.00       7.23 -999.99    7.23    0.00000     0.00  LINEAR    6.85357E-01   -82.71    0.00000E+00     0.00
   30.00    35.00       6.05 -999.99    6.05    0.00000     0.00  LINEAR    5.97868E-01   -92.66    0.00000E+00     0.00
   35.00    35.00       0.98 -999.99    0.98    0.00000     0.00  LINEAR    3.33738E-01  -102.87    0.00000E+00     0.00
   40.00    35.00     -32.49 -999.99  -32.49    0.00000     0.00  LINEAR    7.07947E-03  -156.47    0.00000E+00     0.00
   45.00    35.00      -2.81 -999.99   -2.81    0.00000     0.00  LINEAR    2.15621E-01    54.13    0.00000E+00     0.00
   50.00    35.00      -5.89 -999.99   -5.89    0.00000     0.00  LINEAR    1.51219E-01    44.12    0.00000E+00     0.00
   55.00    35.00      -6.68 -999.99   -6.68    0.00000     0.00  LINEAR    1.38184E-01  -143.33    0.00000E+00     0.00
   60.00    35.00       0.66 -999.99    0.66    0.00000     0.00  LINEAR    3.21430E-01  -142.36    0.00000E+00     0.00
   65.00    35.00      -3.13 -999.99   -3.13    0.00000     0.00  LINEAR    2.07928E-01  -140.70    0.00000E+00     0.00
   70.00    35.00     -13.35 -999.99  -13.35    0.00000     0.00  LINEAR    6.40896E-02    -2.81    0.00000E+00     0.00
   75.00    35.00      -7.69 -999.99   -7.69    0.00000     0.00  LINEAR    1.22979E-01     8.58    0.00000E+00     0.00
   80.00    35.00      -7.72 -999.99   -7.72    0.00000     0.00  LINEAR    1.22551E-01  -149.20    0.00000E+00     0.00
   85.00    35.00       0.00 -999.99    0.00    0.00000     0.00  LINEAR    2.97973E-01  -154.39    0.00000E+00     0.00
   90.00    35.00      -7.04 -999.99   -7.04    0.00000     0.00  LINEAR    1.32560E-01  -129.07    0.00000E+00     0.00
    0.00    40.00    -999.99 -999.99 -999.99    0.00000     0.00            0.00000E+00     0.00    0.00000E+00     0.00
    5.00    40.00      -5.91 -999.99   -5.91    0.00000     0.00  LINEAR    1.50860E-01   -37.39    0.00000E+00     0.00
   10.00    40.00       0.99 -999.99    0.99    0.00000     0.00  LINEAR    3.34173E-01   -62.77    0.00000E+00     0.00
   15.00    40.00       5.47 -999.99    5.47    0.00000     0.00  LINEAR    5.59637E-01   -79.94    0.00000E+00     0.00
   20.00    40.00       6.89 -999.99    6.89    0.00000     0.00  LINEAR    6.58520E-01   -98.23    0.00000E+00     0.00
   25.00    40.00       7.19 -999.99    7.19    0.00000     0.00  LINEAR    6.81870E-01  -117.91    0.00000E+00     0.00
   30.00    40.00       5.98 -999.99    5.98    0.00000     0.00  LINEAR    5.93206E-01  -134.34    0.00000E+00     0.00
   35.00    40.00       0.83 -999.99    0.83    0.00000     0.00  LINEAR    3.28046E-01  -150.32    0.00000E+00     0.00
   40.00    40.00     -38.39 -999.99  -38.39    0.00000     0.00  LINEAR    3.58622E-03    85.74    0.00000E+00     0.00
   45.00    40.00      -2.38 -999.99   -2.38    0.00000     0.00  LINEAR    2.26661E-01    -6.18    0.00000E+00     0.00
   50.00    40.00      -4.97 -999.99   -4.97    0.00000     0.00  LINEAR    1.68095E-01   -21.91    0.00000E+00     0.00
   55.00    40.00      -4.20 -999.99   -4.20    0.00000     0.00  LINEAR    1.83780E-01   143.14    0.00000E+00     0.00
   60.00    40.00       2.45 -999.99    2.45    0.00000     0.00  LINEAR    3.94972E-01   135.70    0.00000E+00     0.00
   65.00    40.00      -2.66 -999.99   -2.66    0.00000     0.00  LINEAR    2.19534E-01   133.15    0.00000E+00     0.00
   70.00    40.00      -9.08 -999.99   -9.08    0.00000     0.00  LINEAR    1.04789E-01   -82.27    0.00000E+00     0.00
   75.00    40.00      -5.97 -999.99   -5.97    0.00000     0.00  LINEAR    1.49896E-01   -73.24    0.00000E+00     0.00
   80.00    40.00      -7.36 -999.99   -7.36    0.00000     0.00  LINEAR    1.27687E-01   107.86    0.00000E+00     0.00
   85.00    40.00       0.42 -999.99    0.42    0.00000     0.00  LINEAR    3.12758E-01   110.59    0.00000E+00     0.00
   90.00    40.00      -7.53 -999.99   -7.53    0.00000     0.00  LINEAR    1.25262E-01   133.82    0.00000E+00     0.00
    0.00    45.00    -999.99 -999.99 -999.99    0.00000     0.00            0.00000E+00     0.00    0.00000E+00     0.00
    5.00    45.00      -5.96 -999.99   -5.96    0.00000     0.00  LINEAR    1.50031E-01   -44.79    0.00000E+00     0.00
   10.00    45.00       0.90 -999.99    0.90    0.00000     0.00  LINEAR    3.30510E-01   -77.45    0.00000E+00     0.00
   15.00    45.00       5.29 -999.99    5.29    0.00000     0.00  LINEAR    5.48143E-01  -100.66    0.00000E+00     0.00
   20.00    45.00       6.73 -999.99    6.73    0.00000     0.00  LINEAR    6.46576E-01  -126.60    0.00000E+00     0.00
   25.00    45.00       7.09 -999.99    7.09    0.00000     0.00  LINEAR    6.73932E-01  -154.05    0.00000E+00     0.00
   30.00    45.00       5.87 -999.99    5.87    0.00000     0.00  LINEAR    5.86171E-01  -176.59    0.00000E+00     0.00
   35.00    45.00       0.66 -999.99    0.66    0.00000     0.00  LINEAR    3.21458E-01   161.92    0.00000E+00     0.00
   40.00    45.00     -31.48 -999.99  -31.48    0.00000     0.00  LINEAR    7.95151E-03   108.71    0.00000E+00     0.00
   45.00    45.00      -3.23 -999.99   -3.23    0.00000     0.00  LINEAR    2.05554E-01   -65.16    0.00000E+00     0.00
   50.00    45.00      -4.76 -999.99   -4.76    0.00000     0.00  LINEAR    1.72314E-01   -83.70    0.00000E+00     0.00
   55.00    45.00      -5.18 -999.99   -5.18    0.00000     0.00  LINEAR    1.64165E-01    89.42    0.00000E+00     0.00
   60.00    45.00       2.63 -999.99    2.63    0.00000     0.00  LINEAR    4.03638E-01    73.06    0.00000E+00     0.00
   65.00    45.00      -1.55 -999.99   -1.55    0.00000     0.00  LINEAR    2.49295E-01    60.66    0.00000E+00     0.00
   70.00    45.00     -11.04 -999.99  -11.04    0.00000     0.00  LINEAR    8.36575E-02  -151.64    0.00000E+00     0.00
   75.00    45.00      -6.27 -999.99   -6.27    0.00000     0.00  LINEAR    1.44880E-01  -152.17    0.00000E+00     0.00
   80.00    45.00      -6.81 -999.99   -6.81    0.00000     0.00  LINEAR    1.36074E-01    34.50    0.00000E+00     0.00
   85.00    45.00       0.75 -999.99    0.75    0.00000     0.00  LINEAR    3.25033E-01    31.32    0.00000E+00     0.00
   90.00    45.00      -6.80 -999.99   -6.80    0.00000     0.00  LINEAR    1.36175E-01    52.18    0.00000E+00     0.00
    0.00    50.00    -999.99 -999.99 -999.99    0.00000     0.00            0.00000E+00     0.00    0.00000E+00     0.00
    5.00    50.00      -6.00 -999.99   -6.00    0.00000     0.00  LINEAR    1.49414E-01   -51.94    0.00000E+00     0.00
   10.00    50.00       0.81 -999.99    0.81    0.00000     0.00  LINEAR    3.27107E-01   -91.84    0.00000E+00     0.00
   15.00    50.00       5.09 -999.99    5.09    0.00000     0.00  LINEAR    5.35459E-01  -121.45    0.00000E+00     0.00
   20.00    50.00       6.60 -999.99    6.60    0.00000     0.00  LINEAR    6.37576E-01  -154.94    0.00000E+00     0.00
   25.00    50.00       7.11 -999.99    7.11    0.00000     0.00  LINEAR    6.76114E-01   170.31    0.00000E+00     0.00
   30.00    50.00       5.84 -999.99    5.84    0.00000     0.00  LINEAR    5.83643E-01   141.74    0.00000E+00     0.00
   35.00    50.00       0.50 -999.99    0.50    0.00000     0.00  LINEAR    3.15675E-01   114.11    0.00000E+00     0.00
   40.00    50.00     -27.61 -999.99  -27.61    0.00000     0.00  LINEAR    1.24173E-02    50.63    0.00000E+00     0.00
   45.00    50.00      -4.00 -999.99   -4.00    0.00000     0.00  LINEAR    1.88053E-01  -125.50    0.00000E+00     0.00
   50.00    50.00      -6.15 -999.99   -6.15    0.00000     0.00  LINEAR    1.46886E-01  -142.41    0.00000E+00     0.00
   55.00    50.00      -6.60 -999.99   -6.60    0.00000     0.00  LINEAR    1.39411E-01    13.53    0.00000E+00     0.00
   60.00    50.00       1.06 -999.99    1.06    0.00000     0.00  LINEAR    3.36775E-01     0.41    0.00000E+00     0.00
[...]
   40.00   315.00     -31.09 -999.99  -31.09    0.00000     0.00  LINEAR    8.31440E-03   -47.50    0.00000E+00     0.00
   45.00   315.00      -3.49 -999.99   -3.49    0.00000     0.00  LINEAR    1.99451E-01   121.87    0.00000E+00     0.00
   50.00   315.00      -4.69 -999.99   -4.69    0.00000     0.00  LINEAR    1.73604E-01  -173.16    0.00000E+00     0.00
   55.00   315.00      -6.95 -999.99   -6.95    0.00000     0.00  LINEAR    1.33956E-01    54.31    0.00000E+00     0.00
   60.00   315.00       3.14 -999.99    3.14    0.00000     0.00  LINEAR    4.27826E-01    93.10    0.00000E+00     0.00
   65.00   315.00      -1.55 -999.99   -1.55    0.00000     0.00  LINEAR    2.49264E-01   123.24    0.00000E+00     0.00
   70.00   315.00      -7.26 -999.99   -7.26    0.00000     0.00  LINEAR    1.29226E-01   -32.50    0.00000E+00     0.00
   75.00   315.00      -5.61 -999.99   -5.61    0.00000     0.00  LINEAR    1.56256E-01    -8.70    0.00000E+00     0.00
   80.00   315.00      -6.63 -999.99   -6.63    0.00000     0.00  LINEAR    1.39009E-01  -150.72    0.00000E+00     0.00
   85.00   315.00       0.52 -999.99    0.52    0.00000     0.00  LINEAR    3.16509E-01  -138.27    0.00000E+00     0.00
   90.00   315.00      -6.78 -999.99   -6.78    0.00000     0.00  LINEAR    1.36522E-01  -110.31    0.00000E+00     0.00
    0.00   320.00    -999.99 -999.99 -999.99    0.00000     0.00            0.00000E+00     0.00    0.00000E+00     0.00
    5.00   320.00      -5.26 -999.99   -5.26    0.00000     0.00  LINEAR    1.62709E-01    61.81    0.00000E+00     0.00
   10.00   320.00       0.69 -999.99    0.69    0.00000     0.00  LINEAR    3.22730E-01   142.69    0.00000E+00     0.00
   15.00   320.00       4.81 -999.99    4.81    0.00000     0.00  LINEAR    5.18454E-01  -137.34    0.00000E+00     0.00
   20.00   320.00       7.18 -999.99    7.18    0.00000     0.00  LINEAR    6.81127E-01   -64.29    0.00000E+00     0.00
   25.00   320.00       6.59 -999.99    6.59    0.00000     0.00  LINEAR    6.36656E-01     9.76    0.00000E+00     0.00
   30.00   320.00       5.31 -999.99    5.31    0.00000     0.00  LINEAR    5.49281E-01    86.09    0.00000E+00     0.00
   35.00   320.00       0.53 -999.99    0.53    0.00000     0.00  LINEAR    3.16785E-01   153.36    0.00000E+00     0.00
   40.00   320.00     -72.42 -999.99  -72.42    0.00000     0.00  LINEAR    7.13361E-05  -164.34    0.00000E+00     0.00
   45.00   320.00      -3.49 -999.99   -3.49    0.00000     0.00  LINEAR    1.99472E-01    99.11    0.00000E+00     0.00
   50.00   320.00      -5.55 -999.99   -5.55    0.00000     0.00  LINEAR    1.57303E-01   165.40    0.00000E+00     0.00
   55.00   320.00      -7.40 -999.99   -7.40    0.00000     0.00  LINEAR    1.27091E-01    12.42    0.00000E+00     0.00
   60.00   320.00       1.81 -999.99    1.81    0.00000     0.00  LINEAR    3.67106E-01    65.43    0.00000E+00     0.00
   65.00   320.00      -2.35 -999.99   -2.35    0.00000     0.00  LINEAR    2.27488E-01   104.53    0.00000E+00     0.00
   70.00   320.00      -9.09 -999.99   -9.09    0.00000     0.00  LINEAR    1.04659E-01   -75.15    0.00000E+00     0.00
   75.00   320.00      -6.54 -999.99   -6.54    0.00000     0.00  LINEAR    1.40416E-01   -38.36    0.00000E+00     0.00
   80.00   320.00      -8.47 -999.99   -8.47    0.00000     0.00  LINEAR    1.12412E-01   178.88    0.00000E+00     0.00
   85.00   320.00      -0.62 -999.99   -0.62    0.00000     0.00  LINEAR    2.77373E-01  -167.80    0.00000E+00     0.00
   90.00   320.00      -7.52 -999.99   -7.52    0.00000     0.00  LINEAR    1.25413E-01  -137.12    0.00000E+00     0.00
    0.00   325.00    -999.99 -999.99 -999.99    0.00000     0.00            0.00000E+00     0.00    0.00000E+00     0.00
    5.00   325.00      -5.27 -999.99   -5.27    0.00000     0.00  LINEAR    1.62431E-01    58.51    0.00000E+00     0.00
   10.00   325.00       0.64 -999.99    0.64    0.00000     0.00  LINEAR    3.20950E-01   135.67    0.00000E+00     0.00
   15.00   325.00       4.60 -999.99    4.60    0.00000     0.00  LINEAR    5.06027E-01  -147.75    0.00000E+00     0.00
   20.00   325.00       6.89 -999.99    6.89    0.00000     0.00  LINEAR    6.58841E-01   -76.70    0.00000E+00     0.00
   25.00   325.00       6.54 -999.99    6.54    0.00000     0.00  LINEAR    6.32487E-01    -6.93    0.00000E+00     0.00
   30.00   325.00       5.17 -999.99    5.17    0.00000     0.00  LINEAR    5.40249E-01    64.64    0.00000E+00     0.00
   35.00   325.00       0.48 -999.99    0.48    0.00000     0.00  LINEAR    3.15138E-01   128.92    0.00000E+00     0.00
   40.00   325.00     -33.84 -999.99  -33.84    0.00000     0.00  LINEAR    6.05794E-03    42.83    0.00000E+00     0.00
   45.00   325.00      -2.98 -999.99   -2.98    0.00000     0.00  LINEAR    2.11612E-01    65.90    0.00000E+00     0.00
   50.00   325.00      -7.01 -999.99   -7.01    0.00000     0.00  LINEAR    1.32990E-01   124.95    0.00000E+00     0.00
   55.00   325.00      -5.17 -999.99   -5.17    0.00000     0.00  LINEAR    1.64354E-01   -20.71    0.00000E+00     0.00
   60.00   325.00       1.63 -999.99    1.63    0.00000     0.00  LINEAR    3.59495E-01    31.70    0.00000E+00     0.00
   65.00   325.00      -1.92 -999.99   -1.92    0.00000     0.00  LINEAR    2.38980E-01    78.85    0.00000E+00     0.00
   70.00   325.00      -9.47 -999.99   -9.47    0.00000     0.00  LINEAR    1.00162E-01  -120.83    0.00000E+00     0.00
   75.00   325.00      -5.95 -999.99   -5.95    0.00000     0.00  LINEAR    1.50226E-01   -72.22    0.00000E+00     0.00
   80.00   325.00      -8.01 -999.99   -8.01    0.00000     0.00  LINEAR    1.18490E-01   136.25    0.00000E+00     0.00
   85.00   325.00       0.13 -999.99    0.13    0.00000     0.00  LINEAR    3.02588E-01   150.15    0.00000E+00     0.00
   90.00   325.00      -7.44 -999.99   -7.44    0.00000     0.00  LINEAR    1.26579E-01  -179.52    0.00000E+00     0.00
    0.00   330.00    -999.99 -999.99 -999.99    0.00000     0.00            0.00000E+00     0.00    0.00000E+00     0.00
    5.00   330.00      -5.29 -999.99   -5.29    0.00000     0.00  LINEAR    1.62191E-01    54.65    0.00000E+00     0.00
   10.00   330.00       0.61 -999.99    0.61    0.00000     0.00  LINEAR    3.19859E-01   127.29    0.00000E+00     0.00
   15.00   330.00       4.42 -999.99    4.42    0.00000     0.00  LINEAR    4.95901E-01  -160.42    0.00000E+00     0.00
   20.00   330.00       6.66 -999.99    6.66    0.00000     0.00  LINEAR    6.41774E-01   -91.82    0.00000E+00     0.00
   25.00   330.00       6.72 -999.99    6.72    0.00000     0.00  LINEAR    6.46465E-01   -26.86    0.00000E+00     0.00
   30.00   330.00       5.34 -999.99    5.34    0.00000     0.00  LINEAR    5.51490E-01    39.46    0.00000E+00     0.00
   35.00   330.00       0.59 -999.99    0.59    0.00000     0.00  LINEAR    3.18841E-01   100.79    0.00000E+00     0.00
   40.00   330.00     -21.96 -999.99  -21.96    0.00000     0.00  LINEAR    2.37949E-02   -30.53    0.00000E+00     0.00
   45.00   330.00      -2.28 -999.99   -2.28    0.00000     0.00  LINEAR    2.29350E-01    28.26    0.00000E+00     0.00
   50.00   330.00      -6.60 -999.99   -6.60    0.00000     0.00  LINEAR    1.39373E-01    82.74    0.00000E+00     0.00
   55.00   330.00      -5.15 -999.99   -5.15    0.00000     0.00  LINEAR    1.64683E-01   -45.09    0.00000E+00     0.00
   60.00   330.00       1.56 -999.99    1.56    0.00000     0.00  LINEAR    3.56647E-01    -0.20    0.00000E+00     0.00
   65.00   330.00      -1.92 -999.99   -1.92    0.00000     0.00  LINEAR    2.38876E-01    49.82    0.00000E+00     0.00
   70.00   330.00      -8.18 -999.99   -8.18    0.00000     0.00  LINEAR    1.16192E-01  -166.37    0.00000E+00     0.00
   75.00   330.00      -5.84 -999.99   -5.84    0.00000     0.00  LINEAR    1.52161E-01  -112.90    0.00000E+00     0.00
   80.00   330.00      -7.26 -999.99   -7.26    0.00000     0.00  LINEAR    1.29226E-01    90.30    0.00000E+00     0.00
   85.00   330.00       0.58 -999.99    0.58    0.00000     0.00  LINEAR    3.18686E-01   105.15    0.00000E+00     0.00
   90.00   330.00      -7.05 -999.99   -7.05    0.00000     0.00  LINEAR    1.32364E-01   132.72    0.00000E+00     0.00
    0.00   335.00    -999.99 -999.99 -999.99    0.00000     0.00            0.00000E+00     0.00    0.00000E+00     0.00
    5.00   335.00      -5.30 -999.99   -5.30    0.00000     0.00  LINEAR    1.61966E-01    50.25    0.00000E+00     0.00
   10.00   335.00       0.60 -999.99    0.60    0.00000     0.00  LINEAR    3.19486E-01   117.70    0.00000E+00     0.00
   15.00   335.00       4.32 -999.99    4.32    0.00000     0.00  LINEAR    4.90333E-01  -174.91    0.00000E+00     0.00
   20.00   335.00       6.53 -999.99    6.53    0.00000     0.00  LINEAR    6.31856E-01  -109.28    0.00000E+00     0.00
   25.00   335.00       7.04 -999.99    7.04    0.00000     0.00  LINEAR    6.70520E-01   -48.53    0.00000E+00     0.00
   30.00   335.00       5.70 -999.99    5.70    0.00000     0.00  LINEAR    5.74288E-01    12.93    0.00000E+00     0.00
   35.00   335.00       0.71 -999.99    0.71    0.00000     0.00  LINEAR    3.23308E-01    69.65    0.00000E+00     0.00
   40.00   335.00     -14.52 -999.99  -14.52    0.00000     0.00  LINEAR    5.60398E-02   -50.18    0.00000E+00     0.00
   45.00   335.00      -1.42 -999.99   -1.42    0.00000     0.00  LINEAR    2.53178E-01    -8.92    0.00000E+00     0.00
   50.00   335.00      -6.37 -999.99   -6.37    0.00000     0.00  LINEAR    1.43141E-01    44.85    0.00000E+00     0.00
   55.00   335.00      -5.92 -999.99   -5.92    0.00000     0.00  LINEAR    1.50704E-01   -79.72    0.00000E+00     0.00
   60.00   335.00       1.02 -999.99    1.02    0.00000     0.00  LINEAR    3.35247E-01   -44.50    0.00000E+00     0.00
   65.00   335.00      -4.07 -999.99   -4.07    0.00000     0.00  LINEAR    1.86488E-01    -0.92    0.00000E+00     0.00
   70.00   335.00      -7.78 -999.99   -7.78    0.00000     0.00  LINEAR    1.21648E-01   163.48    0.00000E+00     0.00
   75.00   335.00      -6.17 -999.99   -6.17    0.00000     0.00  LINEAR    1.46459E-01  -159.58    0.00000E+00     0.00
   80.00   335.00      -6.34 -999.99   -6.34    0.00000     0.00  LINEAR    1.43707E-01    43.56    0.00000E+00     0.00
   85.00   335.00       0.86 -999.99    0.86    0.00000     0.00  LINEAR    3.29246E-01    55.40    0.00000E+00     0.00
   90.00   335.00      -6.86 -999.99   -6.86    0.00000     0.00  LINEAR    1.35354E-01    80.99    0.00000E+00     0.00
    0.00   340.00    -999.99 -999.99 -999.99    0.00000     0.00            0.00000E+00     0.00    0.00000E+00     0.00
    5.00   340.00      -5.31 -999.99   -5.31    0.00000     0.00  LINEAR    1.61722E-01    45.36    0.00000E+00     0.00
   10.00   340.00       0.61 -999.99    0.61    0.00000     0.00  LINEAR    3.19668E-01   107.04    0.00000E+00     0.00
   15.00   340.00       4.30 -999.99    4.30    0.00000     0.00  LINEAR    4.89032E-01   169.28    0.00000E+00     0.00
   20.00   340.00       6.46 -999.99    6.46    0.00000     0.00  LINEAR    6.27065E-01  -128.78    0.00000E+00     0.00
   25.00   340.00       7.28 -999.99    7.28    0.00000     0.00  LINEAR    6.89097E-01   -71.64    0.00000E+00     0.00
   30.00   340.00       5.90 -999.99    5.90    0.00000     0.00  LINEAR    5.87993E-01   -14.93    0.00000E+00     0.00
   35.00   340.00       0.84 -999.99    0.84    0.00000     0.00  LINEAR    3.28381E-01    35.54    0.00000E+00     0.00
   40.00   340.00     -12.12 -999.99  -12.12    0.00000     0.00  LINEAR    7.38743E-02   -59.40    0.00000E+00     0.00
   45.00   340.00      -1.09 -999.99   -1.09    0.00000     0.00  LINEAR    2.63021E-01   -43.24    0.00000E+00     0.00
   50.00   340.00      -6.45 -999.99   -6.45    0.00000     0.00  LINEAR    1.41780E-01     2.48    0.00000E+00     0.00
   55.00   340.00      -6.94 -999.99   -6.94    0.00000     0.00  LINEAR    1.34115E-01  -128.90    0.00000E+00     0.00
   60.00   340.00       0.66 -999.99    0.66    0.00000     0.00  LINEAR    3.21695E-01   -99.97    0.00000E+00     0.00
   65.00   340.00      -4.30 -999.99   -4.30    0.00000     0.00  LINEAR    1.81747E-01   -66.19    0.00000E+00     0.00
   70.00   340.00      -9.57 -999.99   -9.57    0.00000     0.00  LINEAR    9.89957E-02   107.04    0.00000E+00     0.00
   75.00   340.00      -6.74 -999.99   -6.74    0.00000     0.00  LINEAR    1.37214E-01   138.86    0.00000E+00     0.00
   80.00   340.00      -7.18 -999.99   -7.18    0.00000     0.00  LINEAR    1.30429E-01   -12.11    0.00000E+00     0.00
   85.00   340.00       0.31 -999.99    0.31    0.00000     0.00  LINEAR    3.08893E-01    -4.00    0.00000E+00     0.00
   90.00   340.00      -7.66 -999.99   -7.66    0.00000     0.00  LINEAR    1.23355E-01    23.05    0.00000E+00     0.00
    0.00   345.00    -999.99 -999.99 -999.99    0.00000     0.00            0.00000E+00     0.00    0.00000E+00     0.00
    5.00   345.00      -5.33 -999.99   -5.33    0.00000     0.00  LINEAR    1.61423E-01    40.02    0.00000E+00     0.00
   10.00   345.00       0.62 -999.99    0.62    0.00000     0.00  LINEAR    3.20192E-01    95.42    0.00000E+00     0.00
   15.00   345.00       4.31 -999.99    4.31    0.00000     0.00  LINEAR    4.89785E-01   152.47    0.00000E+00     0.00
   20.00   345.00       6.44 -999.99    6.44    0.00000     0.00  LINEAR    6.25548E-01  -150.19    0.00000E+00     0.00
   25.00   345.00       7.35 -999.99    7.35    0.00000     0.00  LINEAR    6.94987E-01   -96.81    0.00000E+00     0.00
   30.00   345.00       5.90 -999.99    5.90    0.00000     0.00  LINEAR    5.87614E-01   -45.64    0.00000E+00     0.00
   35.00   345.00       1.00 -999.99    1.00    0.00000     0.00  LINEAR    3.34265E-01    -0.83    0.00000E+00     0.00
   40.00   345.00     -13.31 -999.99  -13.31    0.00000     0.00  LINEAR    6.43809E-02   -67.55    0.00000E+00     0.00
   45.00   345.00      -1.84 -999.99   -1.84    0.00000     0.00  LINEAR    2.41089E-01   -80.32    0.00000E+00     0.00
   50.00   345.00      -6.80 -999.99   -6.80    0.00000     0.00  LINEAR    1.36160E-01   -43.88    0.00000E+00     0.00
   55.00   345.00      -5.85 -999.99   -5.85    0.00000     0.00  LINEAR    1.51995E-01   166.63    0.00000E+00     0.00
   60.00   345.00       1.43 -999.99    1.43    0.00000     0.00  LINEAR    3.51523E-01  -162.10    0.00000E+00     0.00
   65.00   345.00      -3.30 -999.99   -3.30    0.00000     0.00  LINEAR    2.03823E-01  -130.72    0.00000E+00     0.00
   70.00   345.00      -8.77 -999.99   -8.77    0.00000     0.00  LINEAR    1.08563E-01    49.80    0.00000E+00     0.00
   75.00   345.00      -5.28 -999.99   -5.28    0.00000     0.00  LINEAR    1.62230E-01    78.22    0.00000E+00     0.00
   80.00   345.00      -7.10 -999.99   -7.10    0.00000     0.00  LINEAR    1.31604E-01   -67.25    0.00000E+00     0.00
   85.00   345.00       0.96 -999.99    0.96    0.00000     0.00  LINEAR    3.32821E-01   -62.72    0.00000E+00     0.00
   90.00   345.00      -7.69 -999.99   -7.69    0.00000     0.00  LINEAR    1.23006E-01   -36.35    0.00000E+00     0.00
    0.00   350.00    -999.99 -999.99 -999.99    0.00000     0.00            0.00000E+00     0.00    0.00000E+00     0.00
    5.00   350.00      -5.35 -999.99   -5.35    0.00000     0.00  LINEAR    1.61029E-01    34.25    0.00000E+00     0.00
   10.00   350.00       0.64 -999.99    0.64    0.00000     0.00  LINEAR    3.20973E-01    82.91    0.00000E+00     0.00
   15.00   350.00       4.32 -999.99    4.32    0.00000     0.00  LINEAR    4.89855E-01   134.70    0.00000E+00     0.00
   20.00   350.00       6.46 -999.99    6.46    0.00000     0.00  LINEAR    6.27029E-01  -173.26    0.00000E+00     0.00
   25.00   350.00       7.31 -999.99    7.31    0.00000     0.00  LINEAR    6.91819E-01  -124.38    0.00000E+00     0.00
   30.00   350.00       5.85 -999.99    5.85    0.00000     0.00  LINEAR    5.84617E-01   -79.63    0.00000E+00     0.00
   35.00   350.00       1.04 -999.99    1.04    0.00000     0.00  LINEAR    3.36127E-01   -39.22    0.00000E+00     0.00
   40.00   350.00     -17.80 -999.99  -17.80    0.00000     0.00  LINEAR    3.83946E-02   -80.55    0.00000E+00     0.00
   45.00   350.00      -3.17 -999.99   -3.17    0.00000     0.00  LINEAR    2.06974E-01  -127.78    0.00000E+00     0.00
   50.00   350.00      -7.46 -999.99   -7.46    0.00000     0.00  LINEAR    1.26334E-01   -97.78    0.00000E+00     0.00
   55.00   350.00      -3.91 -999.99   -3.91    0.00000     0.00  LINEAR    1.90083E-01   115.71    0.00000E+00     0.00
   60.00   350.00       2.38 -999.99    2.38    0.00000     0.00  LINEAR    3.91977E-01   142.40    0.00000E+00     0.00
   65.00   350.00      -2.28 -999.99   -2.28    0.00000     0.00  LINEAR    2.29196E-01   172.15    0.00000E+00     0.00
   70.00   350.00      -9.83 -999.99   -9.83    0.00000     0.00  LINEAR    9.61193E-02   -12.16    0.00000E+00     0.00
   75.00   350.00      -5.65 -999.99   -5.65    0.00000     0.00  LINEAR    1.55444E-01    19.24    0.00000E+00     0.00
   80.00   350.00      -9.04 -999.99   -9.04    0.00000     0.00  LINEAR    1.05214E-01  -137.66    0.00000E+00     0.00
   85.00   350.00      -0.33 -999.99   -0.33    0.00000     0.00  LINEAR    2.87041E-01  -129.57    0.00000E+00     0.00
   90.00   350.00      -9.09 -999.99   -9.09    0.00000     0.00  LINEAR    1.04637E-01  -108.36    0.00000E+00     0.00
    0.00   355.00    -999.99 -999.99 -999.99    0.00000     0.00            0.00000E+00     0.00    0.00000E+00     0.00
    5.00   355.00      -5.38 -999.99   -5.38    0.00000     0.00  LINEAR    1.60506E-01    28.11    0.00000E+00     0.00
   10.00   355.00       0.68 -999.99    0.68    0.00000     0.00  LINEAR    3.22147E-01    69.61    0.00000E+00     0.00
   15.00   355.00       4.27 -999.99    4.27    0.00000     0.00  LINEAR    4.87458E-01   115.83    0.00000E+00     0.00
   20.00   355.00       6.50 -999.99    6.50    0.00000     0.00  LINEAR    6.30059E-01   162.42    0.00000E+00     0.00
   25.00   355.00       7.22 -999.99    7.22    0.00000     0.00  LINEAR    6.84070E-01  -154.14    0.00000E+00     0.00
   30.00   355.00       5.85 -999.99    5.85    0.00000     0.00  LINEAR    5.84445E-01  -115.85    0.00000E+00     0.00
   35.00   355.00       0.96 -999.99    0.96    0.00000     0.00  LINEAR    3.32985E-01   -80.41    0.00000E+00     0.00
   40.00   355.00     -25.63 -999.99  -25.63    0.00000     0.00  LINEAR    1.55841E-02  -111.46    0.00000E+00     0.00
   45.00   355.00      -3.51 -999.99   -3.51    0.00000     0.00  LINEAR    1.99058E-01   175.42    0.00000E+00     0.00
   50.00   355.00      -7.37 -999.99   -7.37    0.00000     0.00  LINEAR    1.27603E-01  -157.04    0.00000E+00     0.00
   55.00   355.00      -4.22 -999.99   -4.22    0.00000     0.00  LINEAR    1.83305E-01    65.78    0.00000E+00     0.00
   60.00   355.00       2.13 -999.99    2.13    0.00000     0.00  LINEAR    3.81055E-01    84.39    0.00000E+00     0.00
   65.00   355.00      -2.65 -999.99   -2.65    0.00000     0.00  LINEAR    2.19791E-01   107.81    0.00000E+00     0.00
   70.00   355.00     -10.02 -999.99  -10.02    0.00000     0.00  LINEAR    9.40741E-02   -76.12    0.00000E+00     0.00
   75.00   355.00      -6.30 -999.99   -6.30    0.00000     0.00  LINEAR    1.44362E-01   -54.28    0.00000E+00     0.00
   80.00   355.00      -7.03 -999.99   -7.03    0.00000     0.00  LINEAR    1.32700E-01   151.93    0.00000E+00     0.00
   85.00   355.00       0.59 -999.99    0.59    0.00000     0.00  LINEAR    3.18903E-01   156.16    0.00000E+00     0.00
   90.00   355.00      -7.08 -999.99   -7.08    0.00000     0.00  LINEAR    1.31844E-01   177.53    0.00000E+00     0.00






 ***** DATA CARD NO. 16   EN   0     0     0     0  0.00000E+00  0.00000E+00  0.00000E+00  0.00000E+00  0.00000E+00  0.00000E+00

 RUN TIME =     0.250
