1



                                 *********************************************

                                    NUMERICAL ELECTROMAGNETICS CODE (NEC-2D)

                                 *********************************************




                                     - - - - COMMENTS - - - -


                                                                                                     
                                                                                                     




                                 - - - STRUCTURE SPECIFICATION - - -

                                     COORDINATES MUST BE INPUT IN
                                     METERS OR BE SCALED TO METERS
                                     BEFORE STRUCTURE INPUT IS ENDED


  WIRE                                                                               NO. OF    FIRST  LAST     TAG
  NO.        X1         Y1         Z1          X2         Y2         Z2      RADIUS   SEG.     SEG.   SEG.     NO.
     1   -7.50000   -7.50000   -5.00000    -7.50000   -7.50000    5.00000    0.00100     20        1    20     101
     2    7.50000   -7.50000   -5.00000     7.50000   -7.50000    5.00000    0.00100     20       21    40     102
     3   -7.50000    7.50000   -5.00000    -7.50000    7.50000    5.00000    0.00100     20       41    60     103
     4    7.50000    7.50000   -5.00000     7.50000    7.50000    5.00000    0.00100     20       61    80     104

   TOTAL SEGMENTS USED=   80     NO. SEG. IN A SYMMETRIC CELL=   80     SYMMETRY FLAG=  0


         - MULTIPLE WIRE JUNCTIONS -
 JUNCTION    SEGMENTS  (- FOR END 1, + FOR END 2)
  NONE




                                 - - - - SEGMENTATION DATA - - - -

                                        COORDINATES IN METERS

                         I+ AND I- INDICATE THE SEGMENTS BEFORE AND AFTER I


  SEG.   COORDINATES OF SEG. CENTER     SEG.     ORIENTATION ANGLES    WIRE    CONNECTION DATA   TAG
  NO.       X         Y         Z       LENGTH     ALPHA     BETA      RADIUS    I-   I    I+    NO.
     1  -7.50000  -7.50000  -4.75000   0.50000   90.00000   0.00000   0.00100     0    1    2    101
     2  -7.50000  -7.50000  -4.25000   0.50000   90.00000   0.00000   0.00100     1    2    3    101
     3  -7.50000  -7.50000  -3.75000   0.50000   90.00000   0.00000   0.00100     2    3    4    101
     4  -7.50000  -7.50000  -3.25000   0.50000   90.00000   0.00000   0.00100     3    4    5    101
     5  -7.50000  -7.50000  -2.75000   0.50000   90.00000   0.00000   0.00100     4    5    6    101
     6  -7.50000  -7.50000  -2.25000   0.50000   90.00000   0.00000   0.00100     5    6    7    101
     7  -7.50000  -7.50000  -1.75000   0.50000   90.00000   0.00000   0.00100     6    7    8    101
     8  -7.50000  -7.50000  -1.25000   0.50000   90.00000   0.00000   0.00100     7    8    9    101
     9  -7.50000  -7.50000  -0.75000   0.50000   90.00000   0.00000   0.00100     8    9   10    101
    10  -7.50000  -7.50000  -0.25000   0.50000   90.00000   0.00000   0.00100     9   10   11    101
    11  -7.50000  -7.50000   0.25000   0.50000   90.00000   0.00000   0.00100    10   11   12    101
    12  -7.50000  -7.50000   0.75000   0.50000   90.00000   0.00000   0.00100    11   12   13    101
    13  -7.50000  -7.50000   1.25000   0.50000   90.00000   0.00000   0.00100    12   13   14    101
    14  -7.50000  -7.50000   1.75000   0.50000   90.00000   0.00000   0.00100    13   14   15    101
    15  -7.50000  -7.50000   2.25000   0.50000   90.00000   0.00000   0.00100    14   15   16    101
    16  -7.50000  -7.50000   2.75000   0.50000   90.00000   0.00000   0.00100    15   16   17    101
    17  -7.50000  -7.50000   3.25000   0.50000   90.00000   0.00000   0.00100    16   17   18    101
    18  -7.50000  -7.50000   3.75000   0.50000   90.00000   0.00000   0.00100    17   18   19    101
    19  -7.50000  -7.50000   4.25000   0.50000   90.00000   0.00000   0.00100    18   19   20    101
    20  -7.50000  -7.50000   4.75000   0.50000   90.00000   0.00000   0.00100    19   20    0    101
    21   7.50000  -7.50000  -4.75000   0.50000   90.00000   0.00000   0.00100     0   21   22    102
    22   7.50000  -7.50000  -4.25000   0.50000   90.00000   0.00000   0.00100    21   22   23    102
    23   7.50000  -7.50000  -3.75000   0.50000   90.00000   0.00000   0.00100    22   23   24    102
    24   7.50000  -7.50000  -3.25000   0.50000   90.00000   0.00000   0.00100    23   24   25    102
    25   7.50000  -7.50000  -2.75000   0.50000   90.00000   0.00000   0.00100    24   25   26    102
    26   7.50000  -7.50000  -2.25000   0.50000   90.00000   0.00000   0.00100    25   26   27    102
    27   7.50000  -7.50000  -1.75000   0.50000   90.00000   0.00000   0.00100    26   27   28    102
    28   7.50000  -7.50000  -1.25000   0.50000   90.00000   0.00000   0.00100    27   28   29    102
    29   7.50000  -7.50000  -0.75000   0.50000   90.00000   0.00000   0.00100    28   29   30    102
    30   7.50000  -7.50000  -0.25000   0.50000   90.00000   0.00000   0.00100    29   30   31    102
    31   7.50000  -7.50000   0.25000   0.50000   90.00000   0.00000   0.00100    30   31   32    102
    32   7.50000  -7.50000   0.75000   0.50000   90.00000   0.00000   0.00100    31   32   33    102
    33   7.50000  -7.50000   1.25000   0.50000   90.00000   0.00000   0.00100    32   33   34    102
    34   7.50000  -7.50000   1.75000   0.50000   90.00000   0.00000   0.00100    33   34   35    102
    35   7.50000  -7.50000   2.25000   0.50000   90.00000   0.00000   0.00100    34   35   36    102
    36   7.50000  -7.50000   2.75000   0.50000   90.00000   0.00000   0.00100    35   36   37    102
    37   7.50000  -7.50000   3.25000   0.50000   90.00000   0.00000   0.00100    36   37   38    102
    38   7.50000  -7.50000   3.75000   0.50000   90.00000   0.00000   0.00100    37   38   39    102
    39   7.50000  -7.50000   4.25000   0.50000   90.00000   0.00000   0.00100    38   39   40    102
    40   7.50000  -7.50000   4.75000   0.50000   90.00000   0.00000   0.00100    39   40    0    102
    41  -7.50000   7.50000  -4.75000   0.50000   90.00000   0.00000   0.00100     0   41   42    103
    42  -7.50000   7.50000  -4.25000   0.50000   90.00000   0.00000   0.00100    41   42   43    103
    43  -7.50000   7.50000  -3.75000   0.50000   90.00000   0.00000   0.00100    42   43   44    103
    44  -7.50000   7.50000  -3.25000   0.50000   90.00000   0.00000   0.00100    43   44   45    103
    45  -7.50000   7.50000  -2.75000   0.50000   90.00000   0.00000   0.00100    44   45   46    103
    46  -7.50000   7.50000  -2.25000   0.50000   90.00000   0.00000   0.00100    45   46   47    103
    47  -7.50000   7.50000  -1.75000   0.50000   90.00000   0.00000   0.00100    46   47   48    103
    48  -7.50000   7.50000  -1.25000   0.50000   90.00000   0.00000   0.00100    47   48   49    103
    49  -7.50000   7.50000  -0.75000   0.50000   90.00000   0.00000   0.00100    48   49   50    103
    50  -7.50000   7.50000  -0.25000   0.50000   90.00000   0.00000   0.00100    49   50   51    103
    51  -7.50000   7.50000   0.25000   0.50000   90.00000   0.00000   0.00100    50   51   52    103
    52  -7.50000   7.50000   0.75000   0.50000   90.00000   0.00000   0.00100    51   52   53    103
    53  -7.50000   7.50000   1.25000   0.50000   90.00000   0.00000   0.00100    52   53   54    103
    54  -7.50000   7.50000   1.75000   0.50000   90.00000   0.00000   0.00100    53   54   55    103
    55  -7.50000   7.50000   2.25000   0.50000   90.00000   0.00000   0.00100    54   55   56    103
    56  -7.50000   7.50000   2.75000   0.50000   90.00000   0.00000   0.00100    55   56   57    103
    57  -7.50000   7.50000   3.25000   0.50000   90.00000   0.00000   0.00100    56   57   58    103
    58  -7.50000   7.50000   3.75000   0.50000   90.00000   0.00000   0.00100    57   58   59    103
    59  -7.50000   7.50000   4.25000   0.50000   90.00000   0.00000   0.00100    58   59   60    103
    60  -7.50000   7.50000   4.75000   0.50000   90.00000   0.00000   0.00100    59   60    0    103
    61   7.50000   7.50000  -4.75000   0.50000   90.00000   0.00000   0.00100     0   61   62    104
    62   7.50000   7.50000  -4.25000   0.50000   90.00000   0.00000   0.00100    61   62   63    104
    63   7.50000   7.50000  -3.75000   0.50000   90.00000   0.00000   0.00100    62   63   64    104
    64   7.50000   7.50000  -3.25000   0.50000   90.00000   0.00000   0.00100    63   64   65    104
    65   7.50000   7.50000  -2.75000   0.50000   90.00000   0.00000   0.00100    64   65   66    104
    66   7.50000   7.50000  -2.25000   0.50000   90.00000   0.00000   0.00100    65   66   67    104
    67   7.50000   7.50000  -1.75000   0.50000   90.00000   0.00000   0.00100    66   67   68    104
    68   7.50000   7.50000  -1.25000   0.50000   90.00000   0.00000   0.00100    67   68   69    104
    69   7.50000   7.50000  -0.75000   0.50000   90.00000   0.00000   0.00100    68   69   70    104
    70   7.50000   7.50000  -0.25000   0.50000   90.00000   0.00000   0.00100    69   70   71    104
    71   7.50000   7.50000   0.25000   0.50000   90.00000   0.00000   0.00100    70   71   72    104
    72   7.50000   7.50000   0.75000   0.50000   90.00000   0.00000   0.00100    71   72   73    104
    73   7.50000   7.50000   1.25000   0.50000   90.00000   0.00000   0.00100    72   73   74    104
    74   7.50000   7.50000   1.75000   0.50000   90.00000   0.00000   0.00100    73   74   75    104
    75   7.50000   7.50000   2.25000   0.50000   90.00000   0.00000   0.00100    74   75   76    104
    76   7.50000   7.50000   2.75000   0.50000   90.00000   0.00000   0.00100    75   76   77    104
    77   7.50000   7.50000   3.25000   0.50000   90.00000   0.00000   0.00100    76   77   78    104
    78   7.50000   7.50000   3.75000   0.50000   90.00000   0.00000   0.00100    77   78   79    104
    79   7.50000   7.50000   4.25000   0.50000   90.00000   0.00000   0.00100    78   79   80    104
    80   7.50000   7.50000   4.75000   0.50000   90.00000   0.00000   0.00100    79   80    0    104






 ***** DATA CARD NO.  1   GN  -1     0     0     0  0.00000E+00  0.00000E+00  0.00000E+00  0.00000E+00  0.00000E+00  0.00000E+00
 ***** DATA CARD NO.  2   FR   0     0     0     0  1.00000E+02  0.00000E+00  0.00000E+00  0.00000E+00  0.00000E+00  0.00000E+00
 ***** DATA CARD NO.  3   EX   0   101    10     0  1.00000E+00  0.00000E+00  0.00000E+00  0.00000E+00  0.00000E+00  0.00000E+00
 ***** DATA CARD NO.  4   EX   0   102    10     0  1.00000E-09  0.00000E+00  0.00000E+00  0.00000E+00  0.00000E+00  0.00000E+00
 ***** DATA CARD NO.  5   EX   0   103    10     0  1.00000E-09  0.00000E+00  0.00000E+00  0.00000E+00  0.00000E+00  0.00000E+00
 ***** DATA CARD NO.  6   EX   0   104    10     0  1.00000E-09  0.00000E+00  0.00000E+00  0.00000E+00  0.00000E+00  0.00000E+00
 ***** DATA CARD NO.  7   RP   0    19    72  1010  0.00000E+00  0.00000E+00  5.00000E+00  5.00000E+00  0.00000E+00  0.00000E+00




                                 - - - - - - FREQUENCY - - - - - -

                                    FREQUENCY= 1.0000E+02 MHZ
                                    WAVELENGTH= 2.9980E+00 METERS




                    APPROXIMATE INTEGRATION EMPLOYED FOR SEGMENTS MORE THAN   1.000 WAVELENGTHS APART



                               - - - STRUCTURE IMPEDANCE LOADING - - -

                                   THIS STRUCTURE IS NOT LOADED



                                  - - - ANTENNA ENVIRONMENT - - -

                                            FREE SPACE



                                - - - MATRIX TIMING - - -

                        FILL=    0.016 SEC.,  FACTOR=    0.000 SEC.



                                          - - - ANTENNA INPUT PARAMETERS - - -

   TAG   SEG.    VOLTAGE (VOLTS)         CURRENT (AMPS)         IMPEDANCE (OHMS)        ADMITTANCE (MHOS)      POWER
   NO.   NO.    REAL        IMAG.       REAL        IMAG.       REAL        IMAG.       REAL        IMAG.     (WATTS)
   101    10 1.00000E+00 0.00000E+00 8.10930E-04 1.32058E-03 3.37672E+02-5.49889E+02 8.10930E-04 1.32058E-03 4.05465E-04
   102    30 1.00000E-09 0.00000E+00 2.52437E-05 2.50741E-05 1.99404E-05-1.98064E-05 2.52437E+04 2.50741E+04 1.26219E-14
   103    50 1.00000E-09 0.00000E+00 2.52437E-05 2.50741E-05 1.99404E-05-1.98064E-05 2.52437E+04 2.50741E+04 1.26219E-14
   104    70 1.00000E-09 0.00000E+00 1.58482E-05 1.45748E-05 3.41857E-05-3.14390E-05 1.58482E+04 1.45748E+04 7.92409E-15



                             - - - CURRENTS AND LOCATION - - -

                                 DISTANCES IN WAVELENGTHS


  SEG.  TAG    COORD. OF SEG. CENTER     SEG.            - - - CURRENT (AMPS) - - -
  NO.   NO.     X        Y        Z      LENGTH     REAL        IMAG.       MAG.        PHASE
     1  101  -2.5017  -2.5017  -1.5844  0.16678  -2.5554E-04 -1.5433E-03  1.5644E-03  -99.401
     2  101  -2.5017  -2.5017  -1.4176  0.16678  -3.1365E-04 -2.8438E-03  2.8610E-03  -96.294
     3  101  -2.5017  -2.5017  -1.2508  0.16678   9.5475E-05 -1.2637E-03  1.2673E-03  -85.680
     4  101  -2.5017  -2.5017  -1.0841  0.16678   4.5496E-04  1.5434E-03  1.6090E-03   73.576
     5  101  -2.5017  -2.5017  -0.9173  0.16678   3.2622E-04  2.7907E-03  2.8097E-03   83.333
     6  101  -2.5017  -2.5017  -0.7505  0.16678  -1.9148E-04  1.2485E-03  1.2631E-03   98.719
     7  101  -2.5017  -2.5017  -0.5837  0.16678  -5.5212E-04 -1.5512E-03  1.6466E-03 -109.592
     8  101  -2.5017  -2.5017  -0.4169  0.16678  -3.2700E-04 -2.8276E-03  2.8465E-03  -96.597
     9  101  -2.5017  -2.5017  -0.2502  0.16678   3.3161E-04 -1.2740E-03  1.3165E-03  -75.411
    10  101  -2.5017  -2.5017  -0.0834  0.16678   8.1093E-04  1.3206E-03  1.5497E-03   58.447
    11  101  -2.5017  -2.5017   0.0834  0.16678   6.3649E-04  7.4592E-04  9.8057E-04   49.526
    12  101  -2.5017  -2.5017   0.2502  0.16678  -4.7112E-05 -8.0710E-04  8.0847E-04  -93.341
    13  101  -2.5017  -2.5017   0.4169  0.16678  -6.0338E-04 -1.5549E-03  1.6679E-03 -111.209
    14  101  -2.5017  -2.5017   0.5837  0.16678  -5.2341E-04 -7.8609E-04  9.4440E-04 -123.657
    15  101  -2.5017  -2.5017   0.7505  0.16678   7.5634E-05  7.5263E-04  7.5642E-04   84.261
    16  101  -2.5017  -2.5017   0.9173  0.16678   5.7251E-04  1.5504E-03  1.6527E-03   69.733
    17  101  -2.5017  -2.5017   1.0841  0.16678   4.6648E-04  8.1478E-04  9.3887E-04   60.208
    18  101  -2.5017  -2.5017   1.2508  0.16678  -1.1978E-04 -7.4093E-04  7.5055E-04  -99.183
    19  101  -2.5017  -2.5017   1.4176  0.16678  -5.6217E-04 -1.5881E-03  1.6847E-03 -109.493
    20  101  -2.5017  -2.5017   1.5844  0.16678  -3.5219E-04 -8.5057E-04  9.2060E-04 -112.493
    21  102   2.5017  -2.5017  -1.5844  0.16678  -1.3256E-05 -7.2265E-06  1.5098E-05 -151.404
    22  102   2.5017  -2.5017  -1.4176  0.16678  -2.0542E-05 -4.2651E-06  2.0980E-05 -168.270
    23  102   2.5017  -2.5017  -1.2508  0.16678  -5.1507E-06  1.5877E-05  1.6692E-05  107.974
    24  102   2.5017  -2.5017  -1.0841  0.16678   1.3868E-05  3.2917E-05  3.5719E-05   67.154
    25  102   2.5017  -2.5017  -0.9173  0.16678   1.6354E-05  2.9284E-05  3.3541E-05   60.819
    26  102   2.5017  -2.5017  -0.7505  0.16678   4.6275E-07  7.3347E-06  7.3493E-06   86.390
    27  102   2.5017  -2.5017  -0.5837  0.16678  -1.6159E-05 -1.2676E-05  2.0538E-05 -141.888
    28  102   2.5017  -2.5017  -0.4169  0.16678  -1.4752E-05 -1.2320E-05  1.9220E-05 -140.132
    29  102   2.5017  -2.5017  -0.2502  0.16678   5.2183E-06  6.9139E-06  8.6622E-06   52.956
    30  102   2.5017  -2.5017  -0.0834  0.16678   2.5244E-05  2.5074E-05  3.5580E-05   44.807
    31  102   2.5017  -2.5017   0.0834  0.16678   2.6214E-05  2.3367E-05  3.5117E-05   41.714
    32  102   2.5017  -2.5017   0.2502  0.16678   7.4981E-06  2.6721E-06  7.9600E-06   19.615
    33  102   2.5017  -2.5017   0.4169  0.16678  -1.2521E-05 -1.7271E-05  2.1333E-05 -125.941
    34  102   2.5017  -2.5017   0.5837  0.16678  -1.4965E-05 -1.7182E-05  2.2785E-05 -131.055
    35  102   2.5017  -2.5017   0.7505  0.16678   6.6596E-07  2.9551E-06  3.0293E-06   77.300
    36  102   2.5017  -2.5017   0.9173  0.16678   1.6319E-05  2.4044E-05  2.9059E-05   55.835
    37  102   2.5017  -2.5017   1.0841  0.16678   1.4162E-05  2.6705E-05  3.0228E-05   62.063
    38  102   2.5017  -2.5017   1.2508  0.16678  -4.6687E-06  1.0087E-05  1.1115E-05  114.836
    39  102   2.5017  -2.5017   1.4176  0.16678  -2.0358E-05 -7.7978E-06  2.1800E-05 -159.041
    40  102   2.5017  -2.5017   1.5844  0.16678  -1.3380E-05 -8.0486E-06  1.5615E-05 -148.972
    41  103  -2.5017   2.5017  -1.5844  0.16678  -1.3256E-05 -7.2265E-06  1.5098E-05 -151.404
    42  103  -2.5017   2.5017  -1.4176  0.16678  -2.0542E-05 -4.2651E-06  2.0980E-05 -168.270
    43  103  -2.5017   2.5017  -1.2508  0.16678  -5.1507E-06  1.5877E-05  1.6692E-05  107.974
    44  103  -2.5017   2.5017  -1.0841  0.16678   1.3868E-05  3.2917E-05  3.5719E-05   67.154
    45  103  -2.5017   2.5017  -0.9173  0.16678   1.6354E-05  2.9284E-05  3.3541E-05   60.819
    46  103  -2.5017   2.5017  -0.7505  0.16678   4.6275E-07  7.3347E-06  7.3493E-06   86.390
    47  103  -2.5017   2.5017  -0.5837  0.16678  -1.6159E-05 -1.2676E-05  2.0538E-05 -141.888
    48  103  -2.5017   2.5017  -0.4169  0.16678  -1.4752E-05 -1.2320E-05  1.9220E-05 -140.132
    49  103  -2.5017   2.5017  -0.2502  0.16678   5.2183E-06  6.9139E-06  8.6622E-06   52.956
    50  103  -2.5017   2.5017  -0.0834  0.16678   2.5244E-05  2.5074E-05  3.5580E-05   44.807
    51  103  -2.5017   2.5017   0.0834  0.16678   2.6214E-05  2.3367E-05  3.5117E-05   41.714
    52  103  -2.5017   2.5017   0.2502  0.16678   7.4981E-06  2.6721E-06  7.9600E-06   19.615
    53  103  -2.5017   2.5017   0.4169  0.16678  -1.2521E-05 -1.7271E-05  2.1333E-05 -125.941
    54  103  -2.5017   2.5017   0.5837  0.16678  -1.4965E-05 -1.7182E-05  2.2785E-05 -131.055
    55  103  -2.5017   2.5017   0.7505  0.16678   6.6596E-07  2.9551E-06  3.0293E-06   77.300
    56  103  -2.5017   2.5017   0.9173  0.16678   1.6319E-05  2.4044E-05  2.9059E-05   55.835
    57  103  -2.5017   2.5017   1.0841  0.16678   1.4162E-05  2.6705E-05  3.0228E-05   62.063
    58  103  -2.5017   2.5017   1.2508  0.16678  -4.6687E-06  1.0087E-05  1.1115E-05  114.836
    59  103  -2.5017   2.5017   1.4176  0.16678  -2.0358E-05 -7.7978E-06  2.1800E-05 -159.041
    60  103  -2.5017   2.5017   1.5844  0.16678  -1.3380E-05 -8.0486E-06  1.5615E-05 -148.972
    61  104   2.5017   2.5017  -1.5844  0.16678  -5.4850E-06 -3.9189E-06  6.7411E-06 -144.455
    62  104   2.5017   2.5017  -1.4176  0.16678  -7.0114E-06 -1.9884E-06  7.2879E-06 -164.167
    63  104   2.5017   2.5017  -1.2508  0.16678   1.4601E-06  8.7993E-06  8.9196E-06   80.578
    64  104   2.5017   2.5017  -1.0841  0.16678   1.0377E-05  1.7267E-05  2.0146E-05   58.995
    65  104   2.5017   2.5017  -0.9173  0.16678   1.0923E-05  1.4701E-05  1.8315E-05   53.388
    66  104   2.5017   2.5017  -0.7505  0.16678   3.3345E-06  3.2355E-06  4.6462E-06   44.138
    67  104   2.5017   2.5017  -0.5837  0.16678  -3.7133E-06 -6.2342E-06  7.2563E-06 -120.780
    68  104   2.5017   2.5017  -0.4169  0.16678  -2.1104E-06 -4.7755E-06  5.2210E-06 -113.842
    69  104   2.5017   2.5017  -0.2502  0.16678   7.3797E-06  5.7652E-06  9.3647E-06   37.998
    70  104   2.5017   2.5017  -0.0834  0.16678   1.5848E-05  1.4575E-05  2.1531E-05   42.603
    71  104   2.5017   2.5017   0.0834  0.16678   1.5202E-05  1.2535E-05  1.9704E-05   39.508
    72  104   2.5017   2.5017   0.2502  0.16678   6.2893E-06  1.2168E-06  6.4059E-06   10.950
    73  104   2.5017   2.5017   0.4169  0.16678  -2.0038E-06 -8.6655E-06  8.8942E-06 -103.020
    74  104   2.5017   2.5017   0.5837  0.16678  -1.7601E-06 -7.7997E-06  7.9959E-06 -102.716
    75  104   2.5017   2.5017   0.7505  0.16678   5.9595E-06  2.5898E-06  6.4979E-06   23.488
    76  104   2.5017   2.5017   0.9173  0.16678   1.2223E-05  1.2028E-05  1.7149E-05   44.537
    77  104   2.5017   2.5017   1.0841  0.16678   9.3990E-06  1.1195E-05  1.4618E-05   49.985
    78  104   2.5017   2.5017   1.2508  0.16678  -8.4639E-07  1.1515E-06  1.4291E-06  126.318
    79  104   2.5017   2.5017   1.4176  0.16678  -8.8002E-06 -7.7039E-06  1.1696E-05 -138.800
    80  104   2.5017   2.5017   1.5844  0.16678  -5.8954E-06 -5.6678E-06  8.1780E-06 -136.128



                                        - - - POWER BUDGET - - -

                                           INPUT POWER   = 4.0546E-04 WATTS
                                           RADIATED POWER= 4.0546E-04 WATTS
                                           STRUCTURE LOSS= 0.0000E+00 WATTS
                                           NETWORK LOSS  = 0.0000E+00 WATTS
                                           EFFICIENCY    = 100.00 PERCENT



                                                - - - RADIATION PATTERNS - - -

  - - ANGLES - -       - DIRECTIVE GAINS -       - - - POLARIZATION - - -    - - - E(THETA) - - -    - - - E(PHI) - - -
  THETA     PHI        VERT.   HOR.    TOTAL      AXIAL     TILT   SENSE     MAGNITUDE    PHASE      MAGNITUDE    PHASE 
 DEGREES  DEGREES       DB      DB      DB        RATIO     DEG.              VOLTS/M    DEGREES      VOLTS/M    DEGREES
    0.00     0.00    -999.99 -999.99 -999.99    0.00000     0.00            0.00000E+00     0.00    0.00000E+00     0.00
    5.00     0.00      -9.95 -999.99   -9.95    0.00000     0.00  LINEAR    4.95888E-02    90.53    0.00000E+00     0.00
   10.00     0.00      -4.13 -999.99   -4.13    0.00000     0.00  LINEAR    9.68807E-02    10.68    0.00000E+00     0.00
   15.00     0.00      -1.31 -999.99   -1.31    0.00000     0.00  LINEAR    1.34143E-01   -61.79    0.00000E+00     0.00
   20.00     0.00      -0.42 -999.99   -0.42    0.00000     0.00  LINEAR    1.48556E-01  -137.34    0.00000E+00     0.00
   25.00     0.00      -0.35 -999.99   -0.35    0.00000     0.00  LINEAR    1.49725E-01   155.09    0.00000E+00     0.00
   30.00     0.00      -4.00 -999.99   -4.00    0.00000     0.00  LINEAR    9.83640E-02    95.72    0.00000E+00     0.00
   35.00     0.00     -13.02 -999.99  -13.02    0.00000     0.00  LINEAR    3.48403E-02    70.16    0.00000E+00     0.00
   40.00     0.00      -4.11 -999.99   -4.11    0.00000     0.00  LINEAR    9.71057E-02   107.49    0.00000E+00     0.00
   45.00     0.00       2.09 -999.99    2.09    0.00000     0.00  LINEAR    1.98272E-01    65.62    0.00000E+00     0.00
   50.00     0.00       4.32 -999.99    4.32    0.00000     0.00  LINEAR    2.56258E-01    18.62    0.00000E+00     0.00
   55.00     0.00       3.95 -999.99    3.95    0.00000     0.00  LINEAR    2.45620E-01   -22.47    0.00000E+00     0.00
   60.00     0.00       0.01 -999.99    0.01    0.00000     0.00  LINEAR    1.56148E-01   -52.90    0.00000E+00     0.00
   65.00     0.00      -9.49 -999.99   -9.49    0.00000     0.00  LINEAR    5.23073E-02   -46.79    0.00000E+00     0.00
   70.00     0.00      -8.32 -999.99   -8.32    0.00000     0.00  LINEAR    5.98495E-02    12.32    0.00000E+00     0.00
   75.00     0.00     -11.16 -999.99  -11.16    0.00000     0.00  LINEAR    4.31552E-02     3.22    0.00000E+00     0.00
   80.00     0.00      -9.79 -999.99   -9.79    0.00000     0.00  LINEAR    5.04919E-02  -177.50    0.00000E+00     0.00
   85.00     0.00       0.13 -999.99    0.13    0.00000     0.00  LINEAR    1.58219E-01   175.37    0.00000E+00     0.00
   90.00     0.00       2.12 -999.99    2.12    0.00000     0.00  LINEAR    1.99089E-01   179.65    0.00000E+00     0.00
    0.00     5.00    -999.99 -999.99 -999.99    0.00000     0.00            0.00000E+00     0.00    0.00000E+00     0.00
    5.00     5.00      -9.95 -999.99   -9.95    0.00000     0.00  LINEAR    4.96086E-02    84.13    0.00000E+00     0.00
   10.00     5.00      -4.08 -999.99   -4.08    0.00000     0.00  LINEAR    9.74308E-02    -1.83    0.00000E+00     0.00
   15.00     5.00      -1.33 -999.99   -1.33    0.00000     0.00  LINEAR    1.33815E-01   -80.50    0.00000E+00     0.00
   20.00     5.00      -0.34 -999.99   -0.34    0.00000     0.00  LINEAR    1.49961E-01  -162.11    0.00000E+00     0.00
   25.00     5.00      -0.40 -999.99   -0.40    0.00000     0.00  LINEAR    1.48931E-01   125.43    0.00000E+00     0.00
   30.00     5.00      -4.00 -999.99   -4.00    0.00000     0.00  LINEAR    9.83625E-02    59.77    0.00000E+00     0.00
   35.00     5.00     -11.94 -999.99  -11.94    0.00000     0.00  LINEAR    3.94561E-02    33.12    0.00000E+00     0.00
   40.00     5.00      -3.75 -999.99   -3.75    0.00000     0.00  LINEAR    1.01235E-01    58.83    0.00000E+00     0.00
   45.00     5.00       2.14 -999.99    2.14    0.00000     0.00  LINEAR    1.99395E-01    12.31    0.00000E+00     0.00
   50.00     5.00       4.34 -999.99    4.34    0.00000     0.00  LINEAR    2.57090E-01   -38.56    0.00000E+00     0.00
   55.00     5.00       3.83 -999.99    3.83    0.00000     0.00  LINEAR    2.42290E-01   -83.36    0.00000E+00     0.00
   60.00     5.00      -0.23 -999.99   -0.23    0.00000     0.00  LINEAR    1.51919E-01  -117.94    0.00000E+00     0.00
   65.00     5.00     -10.04 -999.99  -10.04    0.00000     0.00  LINEAR    4.90960E-02  -112.38    0.00000E+00     0.00
   70.00     5.00      -7.96 -999.99   -7.96    0.00000     0.00  LINEAR    6.23338E-02   -52.10    0.00000E+00     0.00
   75.00     5.00     -10.97 -999.99  -10.97    0.00000     0.00  LINEAR    4.40936E-02   -56.22    0.00000E+00     0.00
   80.00     5.00      -8.98 -999.99   -8.98    0.00000     0.00  LINEAR    5.54403E-02    97.89    0.00000E+00     0.00
   85.00     5.00       0.60 -999.99    0.60    0.00000     0.00  LINEAR    1.67163E-01    98.13    0.00000E+00     0.00
   90.00     5.00       2.55 -999.99    2.55    0.00000     0.00  LINEAR    2.09184E-01   103.17    0.00000E+00     0.00
    0.00    10.00    -999.99 -999.99 -999.99    0.00000     0.00            0.00000E+00     0.00    0.00000E+00     0.00
    5.00    10.00      -9.95 -999.99   -9.95    0.00000     0.00  LINEAR    4.96190E-02    78.40    0.00000E+00     0.00
   10.00    10.00      -4.08 -999.99   -4.08    0.00000     0.00  LINEAR    9.74414E-02   -12.99    0.00000E+00     0.00
   15.00    10.00      -1.40 -999.99   -1.40    0.00000     0.00  LINEAR    1.32668E-01   -97.56    0.00000E+00     0.00
   20.00    10.00      -0.41 -999.99   -0.41    0.00000     0.00  LINEAR    1.48791E-01   175.80    0.00000E+00     0.00
   25.00    10.00      -0.71 -999.99   -0.71    0.00000     0.00  LINEAR    1.43708E-01    97.34    0.00000E+00     0.00
   30.00    10.00      -4.20 -999.99   -4.20    0.00000     0.00  LINEAR    9.60989E-02    26.36    0.00000E+00     0.00
   35.00    10.00     -12.68 -999.99  -12.68    0.00000     0.00  LINEAR    3.62021E-02     2.72    0.00000E+00     0.00
   40.00    10.00      -3.78 -999.99   -3.78    0.00000     0.00  LINEAR    1.00924E-01    17.93    0.00000E+00     0.00
   45.00    10.00       2.15 -999.99    2.15    0.00000     0.00  LINEAR    1.99641E-01   -35.24    0.00000E+00     0.00
   50.00    10.00       4.29 -999.99    4.29    0.00000     0.00  LINEAR    2.55457E-01   -90.32    0.00000E+00     0.00
   55.00    10.00       3.82 -999.99    3.82    0.00000     0.00  LINEAR    2.42072E-01  -139.85    0.00000E+00     0.00
   60.00    10.00       0.00 -999.99    0.00    0.00000     0.00  LINEAR    1.55838E-01  -177.61    0.00000E+00     0.00
   65.00    10.00      -9.73 -999.99   -9.73    0.00000     0.00  LINEAR    5.08427E-02  -176.48    0.00000E+00     0.00
   70.00    10.00      -8.66 -999.99   -8.66    0.00000     0.00  LINEAR    5.75398E-02  -117.68    0.00000E+00     0.00
   75.00    10.00     -12.45 -999.99  -12.45    0.00000     0.00  LINEAR    3.71727E-02  -129.55    0.00000E+00     0.00
   80.00    10.00      -8.62 -999.99   -8.62    0.00000     0.00  LINEAR    5.77653E-02    41.85    0.00000E+00     0.00
   85.00    10.00       0.45 -999.99    0.45    0.00000     0.00  LINEAR    1.64141E-01    34.57    0.00000E+00     0.00
   90.00    10.00       2.32 -999.99    2.32    0.00000     0.00  LINEAR    2.03766E-01    38.37    0.00000E+00     0.00
    0.00    15.00    -999.99 -999.99 -999.99    0.00000     0.00            0.00000E+00     0.00    0.00000E+00     0.00
    5.00    15.00      -9.95 -999.99   -9.95    0.00000     0.00  LINEAR    4.96177E-02    73.37    0.00000E+00     0.00
   10.00    15.00      -4.13 -999.99   -4.13    0.00000     0.00  LINEAR    9.69418E-02   -22.84    0.00000E+00     0.00
   15.00    15.00      -1.50 -999.99   -1.50    0.00000     0.00  LINEAR    1.31204E-01  -113.06    0.00000E+00     0.00
   20.00    15.00      -0.56 -999.99   -0.56    0.00000     0.00  LINEAR    1.46205E-01   155.81    0.00000E+00     0.00
   25.00    15.00      -0.96 -999.99   -0.96    0.00000     0.00  LINEAR    1.39573E-01    70.28    0.00000E+00     0.00
   30.00    15.00      -4.18 -999.99   -4.18    0.00000     0.00  LINEAR    9.63989E-02    -5.05    0.00000E+00     0.00
   35.00    15.00     -14.00 -999.99  -14.00    0.00000     0.00  LINEAR    3.11272E-02   -33.20    0.00000E+00     0.00
   40.00    15.00      -4.25 -999.99   -4.25    0.00000     0.00  LINEAR    9.56142E-02   -20.18    0.00000E+00     0.00
   45.00    15.00       2.10 -999.99    2.10    0.00000     0.00  LINEAR    1.98492E-01   -77.71    0.00000E+00     0.00
   50.00    15.00       4.29 -999.99    4.29    0.00000     0.00  LINEAR    2.55645E-01  -136.26    0.00000E+00     0.00
   55.00    15.00       3.94 -999.99    3.94    0.00000     0.00  LINEAR    2.45408E-01   171.47    0.00000E+00     0.00
   60.00    15.00       0.08 -999.99    0.08    0.00000     0.00  LINEAR    1.57391E-01   132.44    0.00000E+00     0.00
   65.00    15.00      -9.52 -999.99   -9.52    0.00000     0.00  LINEAR    5.20821E-02   134.97    0.00000E+00     0.00
   70.00    15.00      -7.85 -999.99   -7.85    0.00000     0.00  LINEAR    6.31564E-02  -172.47    0.00000E+00     0.00
   75.00    15.00     -11.10 -999.99  -11.10    0.00000     0.00  LINEAR    4.34176E-02   177.05    0.00000E+00     0.00
   80.00    15.00      -9.27 -999.99   -9.27    0.00000     0.00  LINEAR    5.36445E-02   -22.94    0.00000E+00     0.00
   85.00    15.00       0.41 -999.99    0.41    0.00000     0.00  LINEAR    1.63546E-01   -27.34    0.00000E+00     0.00
   90.00    15.00       2.38 -999.99    2.38    0.00000     0.00  LINEAR    2.05149E-01   -23.26    0.00000E+00     0.00
    0.00    20.00    -999.99 -999.99 -999.99    0.00000     0.00            0.00000E+00     0.00    0.00000E+00     0.00
    5.00    20.00      -9.95 -999.99   -9.95    0.00000     0.00  LINEAR    4.96050E-02    69.07    0.00000E+00     0.00
   10.00    20.00      -4.21 -999.99   -4.21    0.00000     0.00  LINEAR    9.60654E-02   -31.37    0.00000E+00     0.00
   15.00    20.00      -1.57 -999.99   -1.57    0.00000     0.00  LINEAR    1.30075E-01  -126.92    0.00000E+00     0.00
   20.00    20.00      -0.66 -999.99   -0.66    0.00000     0.00  LINEAR    1.44470E-01   138.02    0.00000E+00     0.00
   25.00    20.00      -0.92 -999.99   -0.92    0.00000     0.00  LINEAR    1.40248E-01    46.11    0.00000E+00     0.00
   30.00    20.00      -3.74 -999.99   -3.74    0.00000     0.00  LINEAR    1.01314E-01   -31.43    0.00000E+00     0.00
   35.00    20.00     -13.50 -999.99  -13.50    0.00000     0.00  LINEAR    3.29646E-02   -67.13    0.00000E+00     0.00
   40.00    20.00      -4.29 -999.99   -4.29    0.00000     0.00  LINEAR    9.50992E-02   -55.28    0.00000E+00     0.00
   45.00    20.00       2.13 -999.99    2.13    0.00000     0.00  LINEAR    1.99186E-01  -114.40    0.00000E+00     0.00
   50.00    20.00       4.31 -999.99    4.31    0.00000     0.00  LINEAR    2.56206E-01  -175.38    0.00000E+00     0.00
   55.00    20.00       3.82 -999.99    3.82    0.00000     0.00  LINEAR    2.42154E-01   129.76    0.00000E+00     0.00
   60.00    20.00      -0.09 -999.99   -0.09    0.00000     0.00  LINEAR    1.54236E-01    86.84    0.00000E+00     0.00
   65.00    20.00      -9.74 -999.99   -9.74    0.00000     0.00  LINEAR    5.08228E-02    85.64    0.00000E+00     0.00
   70.00    20.00      -7.98 -999.99   -7.98    0.00000     0.00  LINEAR    6.22388E-02   140.79    0.00000E+00     0.00
   75.00    20.00     -11.63 -999.99  -11.63    0.00000     0.00  LINEAR    4.08913E-02   133.28    0.00000E+00     0.00
   80.00    20.00      -8.28 -999.99   -8.28    0.00000     0.00  LINEAR    6.00935E-02   -74.75    0.00000E+00     0.00
   85.00    20.00       0.76 -999.99    0.76    0.00000     0.00  LINEAR    1.70175E-01   -77.43    0.00000E+00     0.00
   90.00    20.00       2.62 -999.99    2.62    0.00000     0.00  LINEAR    2.10927E-01   -73.13    0.00000E+00     0.00
    0.00    25.00    -999.99 -999.99 -999.99    0.00000     0.00            0.00000E+00     0.00    0.00000E+00     0.00
    5.00    25.00      -9.95 -999.99   -9.95    0.00000     0.00  LINEAR    4.95839E-02    65.53    0.00000E+00     0.00
   10.00    25.00      -4.30 -999.99   -4.30    0.00000     0.00  LINEAR    9.50027E-02   -38.56    0.00000E+00     0.00
   15.00    25.00      -1.59 -999.99   -1.59    0.00000     0.00  LINEAR    1.29778E-01  -138.91    0.00000E+00     0.00
   20.00    25.00      -0.63 -999.99   -0.63    0.00000     0.00  LINEAR    1.44995E-01   123.17    0.00000E+00     0.00
   25.00    25.00      -0.72 -999.99   -0.72    0.00000     0.00  LINEAR    1.43563E-01    27.18    0.00000E+00     0.00
   30.00    25.00      -3.36 -999.99   -3.36    0.00000     0.00  LINEAR    1.05897E-01   -51.28    0.00000E+00     0.00
   35.00    25.00     -12.39 -999.99  -12.39    0.00000     0.00  LINEAR    3.74377E-02   -86.62    0.00000E+00     0.00
   40.00    25.00      -3.91 -999.99   -3.91    0.00000     0.00  LINEAR    9.94282E-02   -81.69    0.00000E+00     0.00
   45.00    25.00       2.12 -999.99    2.12    0.00000     0.00  LINEAR    1.99056E-01  -144.13    0.00000E+00     0.00
   50.00    25.00       4.31 -999.99    4.31    0.00000     0.00  LINEAR    2.56217E-01   152.11    0.00000E+00     0.00
   55.00    25.00       3.76 -999.99    3.76    0.00000     0.00  LINEAR    2.40458E-01    94.38    0.00000E+00     0.00
   60.00    25.00       0.14 -999.99    0.14    0.00000     0.00  LINEAR    1.58369E-01    48.45    0.00000E+00     0.00
   65.00    25.00      -8.56 -999.99   -8.56    0.00000     0.00  LINEAR    5.81762E-02    45.79    0.00000E+00     0.00
   70.00    25.00      -7.16 -999.99   -7.16    0.00000     0.00  LINEAR    6.83480E-02    97.22    0.00000E+00     0.00
   75.00    25.00     -10.45 -999.99  -10.45    0.00000     0.00  LINEAR    4.67914E-02    92.05    0.00000E+00     0.00
   80.00    25.00      -8.59 -999.99   -8.59    0.00000     0.00  LINEAR    5.79670E-02  -120.82    0.00000E+00     0.00
   85.00    25.00       0.79 -999.99    0.79    0.00000     0.00  LINEAR    1.70680E-01  -121.63    0.00000E+00     0.00
   90.00    25.00       2.68 -999.99    2.68    0.00000     0.00  LINEAR    2.12298E-01  -117.32    0.00000E+00     0.00
    0.00    30.00    -999.99 -999.99 -999.99    0.00000     0.00            0.00000E+00     0.00    0.00000E+00     0.00
    5.00    30.00      -9.96 -999.99   -9.96    0.00000     0.00  LINEAR    4.95588E-02    62.76    0.00000E+00     0.00
   10.00    30.00      -4.40 -999.99   -4.40    0.00000     0.00  LINEAR    9.39529E-02   -44.32    0.00000E+00     0.00
   15.00    30.00      -1.55 -999.99   -1.55    0.00000     0.00  LINEAR    1.30396E-01  -148.66    0.00000E+00     0.00
   20.00    30.00      -0.49 -999.99   -0.49    0.00000     0.00  LINEAR    1.47446E-01   111.95    0.00000E+00     0.00
   25.00    30.00      -0.64 -999.99   -0.64    0.00000     0.00  LINEAR    1.44904E-01    13.95    0.00000E+00     0.00
   30.00    30.00      -3.41 -999.99   -3.41    0.00000     0.00  LINEAR    1.05306E-01   -66.70    0.00000E+00     0.00
   35.00    30.00     -12.13 -999.99  -12.13    0.00000     0.00  LINEAR    3.85691E-02  -100.44    0.00000E+00     0.00
   40.00    30.00      -3.76 -999.99   -3.76    0.00000     0.00  LINEAR    1.01188E-01  -100.29    0.00000E+00     0.00
   45.00    30.00       2.01 -999.99    2.01    0.00000     0.00  LINEAR    1.96470E-01  -167.50    0.00000E+00     0.00
   50.00    30.00       4.36 -999.99    4.36    0.00000     0.00  LINEAR    2.57463E-01   126.47    0.00000E+00     0.00
   55.00    30.00       3.78 -999.99    3.78    0.00000     0.00  LINEAR    2.40979E-01    67.52    0.00000E+00     0.00
   60.00    30.00       0.05 -999.99    0.05    0.00000     0.00  LINEAR    1.56869E-01    20.33    0.00000E+00     0.00
   65.00    30.00      -8.97 -999.99   -8.97    0.00000     0.00  LINEAR    5.55057E-02    17.44    0.00000E+00     0.00
   70.00    30.00      -7.35 -999.99   -7.35    0.00000     0.00  LINEAR    6.68856E-02    68.21    0.00000E+00     0.00
   75.00    30.00     -10.83 -999.99  -10.83    0.00000     0.00  LINEAR    4.48161E-02    61.41    0.00000E+00     0.00
   80.00    30.00      -8.31 -999.99   -8.31    0.00000     0.00  LINEAR    5.98977E-02  -153.15    0.00000E+00     0.00
   85.00    30.00       0.91 -999.99    0.91    0.00000     0.00  LINEAR    1.73112E-01  -154.60    0.00000E+00     0.00
   90.00    30.00       2.80 -999.99    2.80    0.00000     0.00  LINEAR    2.15331E-01  -150.48    0.00000E+00     0.00
    0.00    35.00    -999.99 -999.99 -999.99    0.00000     0.00            0.00000E+00     0.00    0.00000E+00     0.00
    5.00    35.00      -9.96 -999.99   -9.96    0.00000     0.00  LINEAR    4.95356E-02    60.77    0.00000E+00     0.00
   10.00    35.00      -4.48 -999.99   -4.48    0.00000     0.00  LINEAR    9.30853E-02   -48.56    0.00000E+00     0.00
   15.00    35.00      -1.48 -999.99   -1.48    0.00000     0.00  LINEAR    1.31555E-01  -155.84    0.00000E+00     0.00
   20.00    35.00      -0.31 -999.99   -0.31    0.00000     0.00  LINEAR    1.50469E-01   104.49    0.00000E+00     0.00
   25.00    35.00      -0.78 -999.99   -0.78    0.00000     0.00  LINEAR    1.42554E-01     5.52    0.00000E+00     0.00
   30.00    35.00      -3.82 -999.99   -3.82    0.00000     0.00  LINEAR    1.00396E-01   -79.97    0.00000E+00     0.00
   35.00    35.00     -12.38 -999.99  -12.38    0.00000     0.00  LINEAR    3.74833E-02  -118.10    0.00000E+00     0.00
   40.00    35.00      -3.83 -999.99   -3.83    0.00000     0.00  LINEAR    1.00319E-01  -115.58    0.00000E+00     0.00
   45.00    35.00       1.97 -999.99    1.97    0.00000     0.00  LINEAR    1.95724E-01   175.30    0.00000E+00     0.00
   50.00    35.00       4.38 -999.99    4.38    0.00000     0.00  LINEAR    2.58029E-01   108.17    0.00000E+00     0.00
   55.00    35.00       3.74 -999.99    3.74    0.00000     0.00  LINEAR    2.39748E-01    48.31    0.00000E+00     0.00
   60.00    35.00      -0.22 -999.99   -0.22    0.00000     0.00  LINEAR    1.51998E-01    -0.69    0.00000E+00     0.00
   65.00    35.00      -9.93 -999.99   -9.93    0.00000     0.00  LINEAR    4.97238E-02   -10.23    0.00000E+00     0.00
   70.00    35.00      -8.73 -999.99   -8.73    0.00000     0.00  LINEAR    5.70857E-02    41.68    0.00000E+00     0.00
   75.00    35.00     -11.81 -999.99  -11.81    0.00000     0.00  LINEAR    4.00533E-02    23.26    0.00000E+00     0.00
   80.00    35.00      -9.31 -999.99   -9.31    0.00000     0.00  LINEAR    5.33910E-02  -166.13    0.00000E+00     0.00
   85.00    35.00       0.27 -999.99    0.27    0.00000     0.00  LINEAR    1.60754E-01  -176.68    0.00000E+00     0.00
   90.00    35.00       2.23 -999.99    2.23    0.00000     0.00  LINEAR    2.01446E-01  -173.73    0.00000E+00     0.00
    0.00    40.00    -999.99 -999.99 -999.99    0.00000     0.00            0.00000E+00     0.00    0.00000E+00     0.00
    5.00    40.00      -9.96 -999.99   -9.96    0.00000     0.00  LINEAR    4.95192E-02    59.57    0.00000E+00     0.00
   10.00    40.00      -4.53 -999.99   -4.53    0.00000     0.00  LINEAR    9.25199E-02   -51.16    0.00000E+00     0.00
   15.00    40.00      -1.41 -999.99   -1.41    0.00000     0.00  LINEAR    1.32627E-01  -160.21    0.00000E+00     0.00
   20.00    40.00      -0.18 -999.99   -0.18    0.00000     0.00  LINEAR    1.52780E-01   100.36    0.00000E+00     0.00
   25.00    40.00      -1.02 -999.99   -1.02    0.00000     0.00  LINEAR    1.38705E-01     0.88    0.00000E+00     0.00
   30.00    40.00      -4.24 -999.99   -4.24    0.00000     0.00  LINEAR    9.57267E-02   -90.48    0.00000E+00     0.00
   35.00    40.00     -12.11 -999.99  -12.11    0.00000     0.00  LINEAR    3.86608E-02  -136.69    0.00000E+00     0.00
   40.00    40.00      -3.77 -999.99   -3.77    0.00000     0.00  LINEAR    1.00977E-01  -127.67    0.00000E+00     0.00
   45.00    40.00       2.08 -999.99    2.08    0.00000     0.00  LINEAR    1.98191E-01   165.07    0.00000E+00     0.00
   50.00    40.00       4.33 -999.99    4.33    0.00000     0.00  LINEAR    2.56539E-01    97.04    0.00000E+00     0.00
   55.00    40.00       3.79 -999.99    3.79    0.00000     0.00  LINEAR    2.41279E-01    35.73    0.00000E+00     0.00
   60.00    40.00      -0.01 -999.99   -0.01    0.00000     0.00  LINEAR    1.55670E-01   -12.81    0.00000E+00     0.00
   65.00    40.00      -9.54 -999.99   -9.54    0.00000     0.00  LINEAR    5.20005E-02   -20.09    0.00000E+00     0.00
   70.00    40.00      -8.23 -999.99   -8.23    0.00000     0.00  LINEAR    6.04282E-02    29.13    0.00000E+00     0.00
   75.00    40.00     -11.36 -999.99  -11.36    0.00000     0.00  LINEAR    4.21554E-02    12.76    0.00000E+00     0.00
   80.00    40.00      -9.35 -999.99   -9.35    0.00000     0.00  LINEAR    5.31218E-02   176.49    0.00000E+00     0.00
   85.00    40.00       0.34 -999.99    0.34    0.00000     0.00  LINEAR    1.62230E-01   168.05    0.00000E+00     0.00
   90.00    40.00       2.32 -999.99    2.32    0.00000     0.00  LINEAR    2.03601E-01   171.26    0.00000E+00     0.00
    0.00    45.00    -999.99 -999.99 -999.99    0.00000     0.00            0.00000E+00     0.00    0.00000E+00     0.00
    5.00    45.00      -9.96 -999.99   -9.96    0.00000     0.00  LINEAR    4.95133E-02    59.17    0.00000E+00     0.00
   10.00    45.00      -4.55 -999.99   -4.55    0.00000     0.00  LINEAR    9.23243E-02   -52.04    0.00000E+00     0.00
   15.00    45.00      -1.38 -999.99   -1.38    0.00000     0.00  LINEAR    1.33057E-01  -161.68    0.00000E+00     0.00
   20.00    45.00      -0.13 -999.99   -0.13    0.00000     0.00  LINEAR    1.53627E-01    99.05    0.00000E+00     0.00
   25.00    45.00      -1.13 -999.99   -1.13    0.00000     0.00  LINEAR    1.36876E-01    -0.60    0.00000E+00     0.00
   30.00    45.00      -4.39 -999.99   -4.39    0.00000     0.00  LINEAR    9.40891E-02   -94.69    0.00000E+00     0.00
   35.00    45.00     -11.76 -999.99  -11.76    0.00000     0.00  LINEAR    4.02649E-02  -144.30    0.00000E+00     0.00
   40.00    45.00      -3.68 -999.99   -3.68    0.00000     0.00  LINEAR    1.02091E-01  -132.43    0.00000E+00     0.00
   45.00    45.00       2.16 -999.99    2.16    0.00000     0.00  LINEAR    1.99877E-01   161.79    0.00000E+00     0.00
   50.00    45.00       4.29 -999.99    4.29    0.00000     0.00  LINEAR    2.55444E-01    93.24    0.00000E+00     0.00
   55.00    45.00       3.87 -999.99    3.87    0.00000     0.00  LINEAR    2.43444E-01    31.21    0.00000E+00     0.00
   60.00    45.00       0.21 -999.99    0.21    0.00000     0.00  LINEAR    1.59736E-01   -16.10    0.00000E+00     0.00
   65.00    45.00      -9.14 -999.99   -9.14    0.00000     0.00  LINEAR    5.44531E-02   -18.35    0.00000E+00     0.00
   70.00    45.00      -7.50 -999.99   -7.50    0.00000     0.00  LINEAR    6.57440E-02    29.53    0.00000E+00     0.00
   75.00    45.00     -11.24 -999.99  -11.24    0.00000     0.00  LINEAR    4.27272E-02    19.24    0.00000E+00     0.00
   80.00    45.00      -8.32 -999.99   -8.32    0.00000     0.00  LINEAR    5.98060E-02   166.55    0.00000E+00     0.00
   85.00    45.00       0.83 -999.99    0.83    0.00000     0.00  LINEAR    1.71550E-01   163.22    0.00000E+00     0.00
   90.00    45.00       2.73 -999.99    2.73    0.00000     0.00  LINEAR    2.13478E-01   167.05    0.00000E+00     0.00
    0.00    50.00    -999.99 -999.99 -999.99    0.00000     0.00            0.00000E+00     0.00    0.00000E+00     0.00
    5.00    50.00      -9.96 -999.99   -9.96    0.00000     0.00  LINEAR    4.95192E-02    59.57    0.00000E+00     0.00
   10.00    50.00      -4.53 -999.99   -4.53    0.00000     0.00  LINEAR    9.25199E-02   -51.16    0.00000E+00     0.00
   15.00    50.00      -1.41 -999.99   -1.41    0.00000     0.00  LINEAR    1.32627E-01  -160.21    0.00000E+00     0.00
   20.00    50.00      -0.18 -999.99   -0.18    0.00000     0.00  LINEAR    1.52780E-01   100.36    0.00000E+00     0.00
   25.00    50.00      -1.02 -999.99   -1.02    0.00000     0.00  LINEAR    1.38705E-01     0.88    0.00000E+00     0.00
   30.00    50.00      -4.24 -999.99   -4.24    0.00000     0.00  LINEAR    9.57267E-02   -90.48    0.00000E+00     0.00
   35.00    50.00     -12.11 -999.99  -12.11    0.00000     0.00  LINEAR    3.86608E-02  -136.69    0.00000E+00     0.00
   40.00    50.00      -3.77 -999.99   -3.77    0.00000     0.00  LINEAR    1.00977E-01  -127.67    0.00000E+00     0.00
   45.00    50.00       2.08 -999.99    2.08    0.00000     0.00  LINEAR    1.98191E-01   165.07    0.00000E+00     0.00
   50.00    50.00       4.33 -999.99    4.33    0.00000     0.00  LINEAR    2.56539E-01    97.04    0.00000E+00     0.00
   55.00    50.00       3.79 -999.99    3.79    0.00000     0.00  LINEAR    2.41279E-01    35.73    0.00000E+00     0.00
   60.00    50.00      -0.01 -999.99   -0.01    0.00000     0.00  LINEAR    1.55670E-01   -12.81    0.00000E+00     0.00
   65.00    50.00      -9.54 -999.99   -9.54    0.00000     0.00  LINEAR    5.20005E-02   -20.09    0.00000E+00     0.00
   70.00    50.00      -8.23 -999.99   -8.23    0.00000     0.00  LINEAR    6.04282E-02    29.13    0.00000E+00     0.00
   75.00    50.00     -11.36 -999.99  -11.36    0.00000     0.00  LINEAR    4.21554E-02    12.76    0.00000E+00     0.00
   80.00    50.00      -9.35 -999.99   -9.35    0.00000     0.00  LINEAR    5.31218E-02   176.49    0.00000E+00     0.00
   85.00    50.00       0.34 -999.99    0.34    0.00000     0.00  LINEAR    1.62230E-01   168.05    0.00000E+00     0.00
   90.00    50.00       2.32 -999.99    2.32    0.00000     0.00  LINEAR    2.03601E-01   171.26    0.00000E+00     0.00
    0.00    55.00    -999.99 -999.99 -999.99    0.00000     0.00            0.00000E+00     0.00    0.00000E+00     0.00
    5.00    55.00      -9.96 -999.99   -9.96    0.00000     0.00  LINEAR    4.95356E-02    60.77    0.00000E+00     0.00
   10.00    55.00      -4.48 -999.99   -4.48    0.00000     0.00  LINEAR    9.30853E-02   -48.56    0.00000E+00     0.00
   15.00    55.00      -1.48 -999.99   -1.48    0.00000     0.00  LINEAR    1.31555E-01  -155.84    0.00000E+00     0.00
   20.00    55.00      -0.31 -999.99   -0.31    0.00000     0.00  LINEAR    1.50469E-01   104.49    0.00000E+00     0.00
   25.00    55.00      -0.78 -999.99   -0.78    0.00000     0.00  LINEAR    1.42554E-01     5.52    0.00000E+00     0.00
   30.00    55.00      -3.82 -999.99   -3.82    0.00000     0.00  LINEAR    1.00396E-01   -79.97    0.00000E+00     0.00
   35.00    55.00     -12.38 -999.99  -12.38    0.00000     0.00  LINEAR    3.74833E-02  -118.10    0.00000E+00     0.00
   40.00    55.00      -3.83 -999.99   -3.83    0.00000     0.00  LINEAR    1.00319E-01  -115.58    0.00000E+00     0.00
   45.00    55.00       1.97 -999.99    1.97    0.00000     0.00  LINEAR    1.95724E-01   175.30    0.00000E+00     0.00
   50.00    55.00       4.38 -999.99    4.38    0.00000     0.00  LINEAR    2.58029E-01   108.17    0.00000E+00     0.00
   55.00    55.00       3.74 -999.99    3.74    0.00000     0.00  LINEAR    2.39748E-01    48.31    0.00000E+00     0.00
   60.00    55.00      -0.22 -999.99   -0.22    0.00000     0.00  LINEAR    1.51998E-01    -0.69    0.00000E+00     0.00
   65.00    55.00      -9.93 -999.99   -9.93    0.00000     0.00  LINEAR    4.97238E-02   -10.23    0.00000E+00     0.00
   70.00    55.00      -8.73 -999.99   -8.73    0.00000     0.00  LINEAR    5.70857E-02    41.68    0.00000E+00     0.00
   75.00    55.00     -11.81 -999.99  -11.81    0.00000     0.00  LINEAR    4.00533E-02    23.26    0.00000E+00     0.00
   80.00    55.00      -9.31 -999.99   -9.31    0.00000     0.00  LINEAR    5.33910E-02  -166.13    0.00000E+00     0.00
   85.00    55.00       0.27 -999.99    0.27    0.00000     0.00  LINEAR    1.60754E-01  -176.68    0.00000E+00     0.00
   90.00    55.00       2.23 -999.99    2.23    0.00000     0.00  LINEAR    2.01446E-01  -173.73    0.00000E+00     0.00
    0.00    60.00    -999.99 -999.99 -999.99    0.00000     0.00            0.00000E+00     0.00    0.00000E+00     0.00
    5.00    60.00      -9.96 -999.99   -9.96    0.00000     0.00  LINEAR    4.95588E-02    62.76    0.00000E+00     0.00
   10.00    60.00      -4.40 -999.99   -4.40    0.00000     0.00  LINEAR    9.39529E-02   -44.32    0.00000E+00     0.00
   15.00    60.00      -1.55 -999.99   -1.55    0.00000     0.00  LINEAR    1.30396E-01  -148.66    0.00000E+00     0.00
   20.00    60.00      -0.49 -999.99   -0.49    0.00000     0.00  LINEAR    1.47446E-01   111.95    0.00000E+00     0.00
   25.00    60.00      -0.64 -999.99   -0.64    0.00000     0.00  LINEAR    1.44904E-01    13.95    0.00000E+00     0.00
   30.00    60.00      -3.41 -999.99   -3.41    0.00000     0.00  LINEAR    1.05306E-01   -66.70    0.00000E+00     0.00
   35.00    60.00     -12.13 -999.99  -12.13    0.00000     0.00  LINEAR    3.85691E-02  -100.44    0.00000E+00     0.00
   40.00    60.00      -3.76 -999.99   -3.76    0.00000     0.00  LINEAR    1.01188E-01  -100.29    0.00000E+00     0.00
   45.00    60.00       2.01 -999.99    2.01    0.00000     0.00  LINEAR    1.96470E-01  -167.50    0.00000E+00     0.00
   50.00    60.00       4.36 -999.99    4.36    0.00000     0.00  LINEAR    2.57463E-01   126.47    0.00000E+00     0.00
   55.00    60.00       3.78 -999.99    3.78    0.00000     0.00  LINEAR    2.40979E-01    67.52    0.00000E+00     0.00
   60.00    60.00       0.05 -999.99    0.05    0.00000     0.00  LINEAR    1.56869E-01    20.33    0.00000E+00     0.00
   65.00    60.00      -8.97 -999.99   -8.97    0.00000     0.00  LINEAR    5.55057E-02    17.44    0.00000E+00     0.00
   70.00    60.00      -7.35 -999.99   -7.35    0.00000     0.00  LINEAR    6.68856E-02    68.21    0.00000E+00     0.00
   75.00    60.00     -10.83 -999.99  -10.83    0.00000     0.00  LINEAR    4.48161E-02    61.41    0.00000E+00     0.00
   80.00    60.00      -8.31 -999.99   -8.31    0.00000     0.00  LINEAR    5.98977E-02  -153.15    0.00000E+00     0.00
   85.00    60.00       0.91 -999.99    0.91    0.00000     0.00  LINEAR    1.73112E-01  -154.60    0.00000E+00     0.00
   90.00    60.00       2.80 -999.99    2.80    0.00000     0.00  LINEAR    2.15331E-01  -150.48    0.00000E+00     0.00
    0.00    65.00    -999.99 -999.99 -999.99    0.00000     0.00            0.00000E+00     0.00    0.00000E+00     0.00
    5.00    65.00      -9.95 -999.99   -9.95    0.00000     0.00  LINEAR    4.95839E-02    65.53    0.00000E+00     0.00
   10.00    65.00      -4.30 -999.99   -4.30    0.00000     0.00  LINEAR    9.50027E-02   -38.56    0.00000E+00     0.00
   15.00    65.00      -1.59 -999.99   -1.59    0.00000     0.00  LINEAR    1.29778E-01  -138.91    0.00000E+00     0.00
   20.00    65.00      -0.63 -999.99   -0.63    0.00000     0.00  LINEAR    1.44995E-01   123.17    0.00000E+00     0.00
   25.00    65.00      -0.72 -999.99   -0.72    0.00000     0.00  LINEAR    1.43563E-01    27.18    0.00000E+00     0.00
   30.00    65.00      -3.36 -999.99   -3.36    0.00000     0.00  LINEAR    1.05897E-01   -51.28    0.00000E+00     0.00
   35.00    65.00     -12.39 -999.99  -12.39    0.00000     0.00  LINEAR    3.74377E-02   -86.62    0.00000E+00     0.00
   40.00    65.00      -3.91 -999.99   -3.91    0.00000     0.00  LINEAR    9.94282E-02   -81.69    0.00000E+00     0.00
   45.00    65.00       2.12 -999.99    2.12    0.00000     0.00  LINEAR    1.99056E-01  -144.13    0.00000E+00     0.00
   50.00    65.00       4.31 -999.99    4.31    0.00000     0.00  LINEAR    2.56217E-01   152.11    0.00000E+00     0.00
   55.00    65.00       3.76 -999.99    3.76    0.00000     0.00  LINEAR    2.40458E-01    94.38    0.00000E+00     0.00
   60.00    65.00       0.14 -999.99    0.14    0.00000     0.00  LINEAR    1.58369E-01    48.45    0.00000E+00     0.00
   65.00    65.00      -8.56 -999.99   -8.56    0.00000     0.00  LINEAR    5.81762E-02    45.79    0.00000E+00     0.00
   70.00    65.00      -7.16 -999.99   -7.16    0.00000     0.00  LINEAR    6.83480E-02    97.22    0.00000E+00     0.00
   75.00    65.00     -10.45 -999.99  -10.45    0.00000     0.00  LINEAR    4.67914E-02    92.05    0.00000E+00     0.00
   80.00    65.00      -8.59 -999.99   -8.59    0.00000     0.00  LINEAR    5.79670E-02  -120.82    0.00000E+00     0.00
   85.00    65.00       0.79 -999.99    0.79    0.00000     0.00  LINEAR    1.70680E-01  -121.63    0.00000E+00     0.00
   90.00    65.00       2.68 -999.99    2.68    0.00000     0.00  LINEAR    2.12298E-01  -117.32    0.00000E+00     0.00
    0.00    70.00    -999.99 -999.99 -999.99    0.00000     0.00            0.00000E+00     0.00    0.00000E+00     0.00
    5.00    70.00      -9.95 -999.99   -9.95    0.00000     0.00  LINEAR    4.96050E-02    69.07    0.00000E+00     0.00
   10.00    70.00      -4.21 -999.99   -4.21    0.00000     0.00  LINEAR    9.60654E-02   -31.37    0.00000E+00     0.00
   15.00    70.00      -1.57 -999.99   -1.57    0.00000     0.00  LINEAR    1.30075E-01  -126.92    0.00000E+00     0.00
   20.00    70.00      -0.66 -999.99   -0.66    0.00000     0.00  LINEAR    1.44470E-01   138.02    0.00000E+00     0.00
   25.00    70.00      -0.92 -999.99   -0.92    0.00000     0.00  LINEAR    1.40248E-01    46.11    0.00000E+00     0.00
   30.00    70.00      -3.74 -999.99   -3.74    0.00000     0.00  LINEAR    1.01314E-01   -31.43    0.00000E+00     0.00
   35.00    70.00     -13.50 -999.99  -13.50    0.00000     0.00  LINEAR    3.29646E-02   -67.13    0.00000E+00     0.00
   40.00    70.00      -4.29 -999.99   -4.29    0.00000     0.00  LINEAR    9.50992E-02   -55.28    0.00000E+00     0.00
   45.00    70.00       2.13 -999.99    2.13    0.00000     0.00  LINEAR    1.99186E-01  -114.40    0.00000E+00     0.00
   50.00    70.00       4.31 -999.99    4.31    0.00000     0.00  LINEAR    2.56206E-01  -175.38    0.00000E+00     0.00
   55.00    70.00       3.82 -999.99    3.82    0.00000     0.00  LINEAR    2.42154E-01   129.76    0.00000E+00     0.00
   60.00    70.00      -0.09 -999.99   -0.09    0.00000     0.00  LINEAR    1.54236E-01    86.84    0.00000E+00     0.00
   65.00    70.00      -9.74 -999.99   -9.74    0.00000     0.00  LINEAR    5.08228E-02    85.64    0.00000E+00     0.00
   70.00    70.00      -7.98 -999.99   -7.98    0.00000     0.00  LINEAR    6.22388E-02   140.79    0.00000E+00     0.00
   75.00    70.00     -11.63 -999.99  -11.63    0.00000     0.00  LINEAR    4.08913E-02   133.28    0.00000E+00     0.00
   80.00    70.00      -8.28 -999.99   -8.28    0.00000     0.00  LINEAR    6.00935E-02   -74.75    0.00000E+00     0.00
   85.00    70.00       0.76 -999.99    0.76    0.00000     0.00  LINEAR    1.70175E-01   -77.43    0.00000E+00     0.00
   90.00    70.00       2.62 -999.99    2.62    0.00000     0.00  LINEAR    2.10927E-01   -73.13    0.00000E+00     0.00
    0.00    75.00    -999.99 -999.99 -999.99    0.00000     0.00            0.00000E+00     0.00    0.00000E+00     0.00
    5.00    75.00      -9.95 -999.99   -9.95    0.00000     0.00  LINEAR    4.96177E-02    73.37    0.00000E+00     0.00
   10.00    75.00      -4.13 -999.99   -4.13    0.00000     0.00  LINEAR    9.69418E-02   -22.84    0.00000E+00     0.00
   15.00    75.00      -1.50 -999.99   -1.50    0.00000     0.00  LINEAR    1.31204E-01  -113.06    0.00000E+00     0.00
   20.00    75.00      -0.56 -999.99   -0.56    0.00000     0.00  LINEAR    1.46205E-01   155.81    0.00000E+00     0.00
   25.00    75.00      -0.96 -999.99   -0.96    0.00000     0.00  LINEAR    1.39573E-01    70.28    0.00000E+00     0.00
   30.00    75.00      -4.18 -999.99   -4.18    0.00000     0.00  LINEAR    9.63989E-02    -5.05    0.00000E+00     0.00
   35.00    75.00     -14.00 -999.99  -14.00    0.00000     0.00  LINEAR    3.11272E-02   -33.20    0.00000E+00     0.00
   40.00    75.00      -4.25 -999.99   -4.25    0.00000     0.00  LINEAR    9.56142E-02   -20.18    0.00000E+00     0.00
   45.00    75.00       2.10 -999.99    2.10    0.00000     0.00  LINEAR    1.98492E-01   -77.71    0.00000E+00     0.00
   50.00    75.00       4.29 -999.99    4.29    0.00000     0.00  LINEAR    2.55645E-01  -136.26    0.00000E+00     0.00
   55.00    75.00       3.94 -999.99    3.94    0.00000     0.00  LINEAR    2.45408E-01   171.47    0.00000E+00     0.00
   60.00    75.00       0.08 -999.99    0.08    0.00000     0.00  LINEAR    1.57391E-01   132.44    0.00000E+00     0.00
   65.00    75.00      -9.52 -999.99   -9.52    0.00000     0.00  LINEAR    5.20821E-02   134.97    0.00000E+00     0.00
   70.00    75.00      -7.85 -999.99   -7.85    0.00000     0.00  LINEAR    6.31564E-02  -172.47    0.00000E+00     0.00
   75.00    75.00     -11.10 -999.99  -11.10    0.00000     0.00  LINEAR    4.34176E-02   177.05    0.00000E+00     0.00
   80.00    75.00      -9.27 -999.99   -9.27    0.00000     0.00  LINEAR    5.36445E-02   -22.94    0.00000E+00     0.00
   85.00    75.00       0.41 -999.99    0.41    0.00000     0.00  LINEAR    1.63546E-01   -27.34    0.00000E+00     0.00
   90.00    75.00       2.38 -999.99    2.38    0.00000     0.00  LINEAR    2.05149E-01   -23.26    0.00000E+00     0.00
    0.00    80.00    -999.99 -999.99 -999.99    0.00000     0.00            0.00000E+00     0.00    0.00000E+00     0.00
    5.00    80.00      -9.95 -999.99   -9.95    0.00000     0.00  LINEAR    4.96190E-02    78.40    0.00000E+00     0.00
   10.00    80.00      -4.08 -999.99   -4.08    0.00000     0.00  LINEAR    9.74414E-02   -12.99    0.00000E+00     0.00
   15.00    80.00      -1.40 -999.99   -1.40    0.00000     0.00  LINEAR    1.32668E-01   -97.56    0.00000E+00     0.00
   20.00    80.00      -0.41 -999.99   -0.41    0.00000     0.00  LINEAR    1.48791E-01   175.80    0.00000E+00     0.00
   25.00    80.00      -0.71 -999.99   -0.71    0.00000     0.00  LINEAR    1.43708E-01    97.34    0.00000E+00     0.00
   30.00    80.00      -4.20 -999.99   -4.20    0.00000     0.00  LINEAR    9.60989E-02    26.36    0.00000E+00     0.00
   35.00    80.00     -12.68 -999.99  -12.68    0.00000     0.00  LINEAR    3.62021E-02     2.72    0.00000E+00     0.00
   40.00    80.00      -3.78 -999.99   -3.78    0.00000     0.00  LINEAR    1.00924E-01    17.93    0.00000E+00     0.00
   45.00    80.00       2.15 -999.99    2.15    0.00000     0.00  LINEAR    1.99641E-01   -35.24    0.00000E+00     0.00
   50.00    80.00       4.29 -999.99    4.29    0.00000     0.00  LINEAR    2.55457E-01   -90.32    0.00000E+00     0.00
   55.00    80.00       3.82 -999.99    3.82    0.00000     0.00  LINEAR    2.42072E-01  -139.85    0.00000E+00     0.00
   60.00    80.00       0.00 -999.99    0.00    0.00000     0.00  LINEAR    1.55838E-01  -177.61    0.00000E+00     0.00
   65.00    80.00      -9.73 -999.99   -9.73    0.00000     0.00  LINEAR    5.08427E-02  -176.48    0.00000E+00     0.00
   70.00    80.00      -8.66 -999.99   -8.66    0.00000     0.00  LINEAR    5.75398E-02  -117.68    0.00000E+00     0.00
   75.00    80.00     -12.45 -999.99  -12.45    0.00000     0.00  LINEAR    3.71727E-02  -129.55    0.00000E+00     0.00
   80.00    80.00      -8.62 -999.99   -8.62    0.00000     0.00  LINEAR    5.77653E-02    41.85    0.00000E+00     0.00
   85.00    80.00       0.45 -999.99    0.45    0.00000     0.00  LINEAR    1.64141E-01    34.57    0.00000E+00     0.00
   90.00    80.00       2.32 -999.99    2.32    0.00000     0.00  LINEAR    2.03766E-01    38.37    0.00000E+00     0.00
    0.00    85.00    -999.99 -999.99 -999.99    0.00000     0.00            0.00000E+00     0.00    0.00000E+00     0.00
    5.00    85.00      -9.95 -999.99   -9.95    0.00000     0.00  LINEAR    4.96086E-02    84.13    0.00000E+00     0.00
   10.00    85.00      -4.08 -999.99   -4.08    0.00000     0.00  LINEAR    9.74308E-02    -1.83    0.00000E+00     0.00
   15.00    85.00      -1.33 -999.99   -1.33    0.00000     0.00  LINEAR    1.33815E-01   -80.50    0.00000E+00     0.00
   20.00    85.00      -0.34 -999.99   -0.34    0.00000     0.00  LINEAR    1.49961E-01  -162.11    0.00000E+00     0.00
   25.00    85.00      -0.40 -999.99   -0.40    0.00000     0.00  LINEAR    1.48931E-01   125.43    0.00000E+00     0.00
   30.00    85.00      -4.00 -999.99   -4.00    0.00000     0.00  LINEAR    9.83625E-02    59.77    0.00000E+00     0.00
   35.00    85.00     -11.94 -999.99  -11.94    0.00000     0.00  LINEAR    3.94561E-02    33.12    0.00000E+00     0.00
   40.00    85.00      -3.75 -999.99   -3.75    0.00000     0.00  LINEAR    1.01235E-01    58.83    0.00000E+00     0.00
   45.00    85.00       2.14 -999.99    2.14    0.00000     0.00  LINEAR    1.99395E-01    12.31    0.00000E+00     0.00
   50.00    85.00       4.34 -999.99    4.34    0.00000     0.00  LINEAR    2.57090E-01   -38.56    0.00000E+00     0.00
   55.00    85.00       3.83 -999.99    3.83    0.00000     0.00  LINEAR    2.42290E-01   -83.36    0.00000E+00     0.00
   60.00    85.00      -0.23 -999.99   -0.23    0.00000     0.00  LINEAR    1.51919E-01  -117.94    0.00000E+00     0.00
   65.00    85.00     -10.04 -999.99  -10.04    0.00000     0.00  LINEAR    4.90960E-02  -112.38    0.00000E+00     0.00
   70.00    85.00      -7.96 -999.99   -7.96    0.00000     0.00  LINEAR    6.23338E-02   -52.10    0.00000E+00     0.00
   75.00    85.00     -10.97 -999.99  -10.97    0.00000     0.00  LINEAR    4.40936E-02   -56.22    0.00000E+00     0.00
   80.00    85.00      -8.98 -999.99   -8.98    0.00000     0.00  LINEAR    5.54403E-02    97.89    0.00000E+00     0.00
   85.00    85.00       0.60 -999.99    0.60    0.00000     0.00  LINEAR    1.67163E-01    98.13    0.00000E+00     0.00
   90.00    85.00       2.55 -999.99    2.55    0.00000     0.00  LINEAR    2.09184E-01   103.17    0.00000E+00     0.00
    0.00    90.00    -999.99 -999.99 -999.99    0.00000     0.00            0.00000E+00     0.00    0.00000E+00     0.00
    5.00    90.00      -9.95 -999.99   -9.95    0.00000     0.00  LINEAR    4.95888E-02    90.53    0.00000E+00     0.00
   10.00    90.00      -4.13 -999.99   -4.13    0.00000     0.00  LINEAR    9.68807E-02    10.68    0.00000E+00     0.00
   15.00    90.00      -1.31 -999.99   -1.31    0.00000     0.00  LINEAR    1.34143E-01   -61.79    0.00000E+00     0.00
   20.00    90.00      -0.42 -999.99   -0.42    0.00000     0.00  LINEAR    1.48556E-01  -137.34    0.00000E+00     0.00
   25.00    90.00      -0.35 -999.99   -0.35    0.00000     0.00  LINEAR    1.49725E-01   155.09    0.00000E+00     0.00
   30.00    90.00      -4.00 -999.99   -4.00    0.00000     0.00  LINEAR    9.83640E-02    95.72    0.00000E+00     0.00
   35.00    90.00     -13.02 -999.99  -13.02    0.00000     0.00  LINEAR    3.48403E-02    70.16    0.00000E+00     0.00
   40.00    90.00      -4.11 -999.99   -4.11    0.00000     0.00  LINEAR    9.71057E-02   107.49    0.00000E+00     0.00
   45.00    90.00       2.09 -999.99    2.09    0.00000     0.00  LINEAR    1.98272E-01    65.62    0.00000E+00     0.00
   50.00    90.00       4.32 -999.99    4.32    0.00000     0.00  LINEAR    2.56258E-01    18.62    0.00000E+00     0.00
   55.00    90.00       3.95 -999.99    3.95    0.00000     0.00  LINEAR    2.45620E-01   -22.47    0.00000E+00     0.00
   60.00    90.00       0.01 -999.99    0.01    0.00000     0.00  LINEAR    1.56148E-01   -52.90    0.00000E+00     0.00
   65.00    90.00      -9.49 -999.99   -9.49    0.00000     0.00  LINEAR    5.23073E-02   -46.79    0.00000E+00     0.00
   70.00    90.00      -8.32 -999.99   -8.32    0.00000     0.00  LINEAR    5.98495E-02    12.32    0.00000E+00     0.00
   75.00    90.00     -11.16 -999.99  -11.16    0.00000     0.00  LINEAR    4.31552E-02     3.22    0.00000E+00     0.00
   80.00    90.00      -9.79 -999.99   -9.79    0.00000     0.00  LINEAR    5.04919E-02  -177.50    0.00000E+00     0.00
   85.00    90.00       0.13 -999.99    0.13    0.00000     0.00  LINEAR    1.58219E-01   175.37    0.00000E+00     0.00
   90.00    90.00       2.12 -999.99    2.12    0.00000     0.00  LINEAR    1.99089E-01   179.65    0.00000E+00     0.00
    0.00    95.00    -999.99 -999.99 -999.99    0.00000     0.00            0.00000E+00     0.00    0.00000E+00     0.00
    5.00    95.00      -9.95 -999.99   -9.95    0.00000     0.00  LINEAR    4.95633E-02    97.55    0.00000E+00     0.00
   10.00    95.00      -4.22 -999.99   -4.22    0.00000     0.00  LINEAR    9.58934E-02    24.60    0.00000E+00     0.00
   15.00    95.00      -1.35 -999.99   -1.35    0.00000     0.00  LINEAR    1.33482E-01   -41.28    0.00000E+00     0.00
   20.00    95.00      -0.59 -999.99   -0.59    0.00000     0.00  LINEAR    1.45746E-01  -109.30    0.00000E+00     0.00
   25.00    95.00      -0.63 -999.99   -0.63    0.00000     0.00  LINEAR    1.44982E-01  -171.62    0.00000E+00     0.00
   30.00    95.00      -4.19 -999.99   -4.19    0.00000     0.00  LINEAR    9.62136E-02   136.37    0.00000E+00     0.00
   35.00    95.00     -14.02 -999.99  -14.02    0.00000     0.00  LINEAR    3.10400E-02   126.17    0.00000E+00     0.00
   40.00    95.00      -3.99 -999.99   -3.99    0.00000     0.00  LINEAR    9.84906E-02   162.58    0.00000E+00     0.00
   45.00    95.00       2.13 -999.99    2.13    0.00000     0.00  LINEAR    1.99351E-01   123.72    0.00000E+00     0.00
   50.00    95.00       4.29 -999.99    4.29    0.00000     0.00  LINEAR    2.55415E-01    81.72    0.00000E+00     0.00
   55.00    95.00       3.80 -999.99    3.80    0.00000     0.00  LINEAR    2.41397E-01    44.37    0.00000E+00     0.00
   60.00    95.00      -0.14 -999.99   -0.14    0.00000     0.00  LINEAR    1.53360E-01    16.86    0.00000E+00     0.00
   65.00    95.00     -10.11 -999.99  -10.11    0.00000     0.00  LINEAR    4.86681E-02    27.19    0.00000E+00     0.00
   70.00    95.00      -8.48 -999.99   -8.48    0.00000     0.00  LINEAR    5.87508E-02    96.04    0.00000E+00     0.00
   75.00    95.00     -11.96 -999.99  -11.96    0.00000     0.00  LINEAR    3.93360E-02    95.58    0.00000E+00     0.00
   80.00    95.00      -8.41 -999.99   -8.41    0.00000     0.00  LINEAR    5.91824E-02  -104.45    0.00000E+00     0.00
   85.00    95.00       0.72 -999.99    0.72    0.00000     0.00  LINEAR    1.69447E-01  -104.09    0.00000E+00     0.00
   90.00    95.00       2.61 -999.99    2.61    0.00000     0.00  LINEAR    2.10623E-01   -98.67    0.00000E+00     0.00
    0.00   100.00    -999.99 -999.99 -999.99    0.00000     0.00            0.00000E+00     0.00    0.00000E+00     0.00
    5.00   100.00      -9.96 -999.99   -9.96    0.00000     0.00  LINEAR    4.95366E-02   105.13    0.00000E+00     0.00
   10.00   100.00      -4.33 -999.99   -4.33    0.00000     0.00  LINEAR    9.46955E-02    39.89    0.00000E+00     0.00
   15.00   100.00      -1.44 -999.99   -1.44    0.00000     0.00  LINEAR    1.32060E-01   -18.87    0.00000E+00     0.00
   20.00   100.00      -0.69 -999.99   -0.69    0.00000     0.00  LINEAR    1.44052E-01   -78.18    0.00000E+00     0.00
   25.00   100.00      -0.93 -999.99   -0.93    0.00000     0.00  LINEAR    1.40022E-01  -133.28    0.00000E+00     0.00
   30.00   100.00      -4.27 -999.99   -4.27    0.00000     0.00  LINEAR    9.53362E-02  -178.16    0.00000E+00     0.00
   35.00   100.00     -12.70 -999.99  -12.70    0.00000     0.00  LINEAR    3.61230E-02  -177.83    0.00000E+00     0.00
   40.00   100.00      -3.70 -999.99   -3.70    0.00000     0.00  LINEAR    1.01856E-01  -142.14    0.00000E+00     0.00
   45.00   100.00       2.15 -999.99    2.15    0.00000     0.00  LINEAR    1.99779E-01  -174.33    0.00000E+00     0.00
   50.00   100.00       4.34 -999.99    4.34    0.00000     0.00  LINEAR    2.56908E-01   149.21    0.00000E+00     0.00
   55.00   100.00       3.88 -999.99    3.88    0.00000     0.00  LINEAR    2.43642E-01   117.38    0.00000E+00     0.00
   60.00   100.00      -0.11 -999.99   -0.11    0.00000     0.00  LINEAR    1.53913E-01    95.05    0.00000E+00     0.00
   65.00   100.00      -9.69 -999.99   -9.69    0.00000     0.00  LINEAR    5.10733E-02   111.13    0.00000E+00     0.00
   70.00   100.00      -7.92 -999.99   -7.92    0.00000     0.00  LINEAR    6.26362E-02   175.35    0.00000E+00     0.00
   75.00   100.00     -10.87 -999.99  -10.87    0.00000     0.00  LINEAR    4.46181E-02   172.29    0.00000E+00     0.00
   80.00   100.00      -9.81 -999.99   -9.81    0.00000     0.00  LINEAR    5.04100E-02   -13.28    0.00000E+00     0.00
   85.00   100.00       0.18 -999.99    0.18    0.00000     0.00  LINEAR    1.59100E-01   -15.95    0.00000E+00     0.00
   90.00   100.00       2.17 -999.99    2.17    0.00000     0.00  LINEAR    2.00239E-01   -10.78    0.00000E+00     0.00
    0.00   105.00    -999.99 -999.99 -999.99    0.00000     0.00            0.00000E+00     0.00    0.00000E+00     0.00
    5.00   105.00      -9.96 -999.99   -9.96    0.00000     0.00  LINEAR    4.95125E-02   113.21    0.00000E+00     0.00
   10.00   105.00      -4.43 -999.99   -4.43    0.00000     0.00  LINEAR    9.35827E-02    56.49    0.00000E+00     0.00
   15.00   105.00      -1.55 -999.99   -1.55    0.00000     0.00  LINEAR    1.30493E-01     5.50    0.00000E+00     0.00
   20.00   105.00      -0.65 -999.99   -0.65    0.00000     0.00  LINEAR    1.44660E-01   -45.05    0.00000E+00     0.00
   25.00   105.00      -0.86 -999.99   -0.86    0.00000     0.00  LINEAR    1.41279E-01   -91.62    0.00000E+00     0.00
   30.00   105.00      -4.06 -999.99   -4.06    0.00000     0.00  LINEAR    9.76558E-02  -129.68    0.00000E+00     0.00
   35.00   105.00     -12.29 -999.99  -12.29    0.00000     0.00  LINEAR    3.78765E-02  -130.44    0.00000E+00     0.00
   40.00   105.00      -4.07 -999.99   -4.07    0.00000     0.00  LINEAR    9.75543E-02   -83.66    0.00000E+00     0.00
   45.00   105.00       2.11 -999.99    2.11    0.00000     0.00  LINEAR    1.98762E-01  -108.25    0.00000E+00     0.00
   50.00   105.00       4.30 -999.99    4.30    0.00000     0.00  LINEAR    2.55703E-01  -139.14    0.00000E+00     0.00
   55.00   105.00       3.91 -999.99    3.91    0.00000     0.00  LINEAR    2.44596E-01  -166.98    0.00000E+00     0.00
   60.00   105.00       0.14 -999.99    0.14    0.00000     0.00  LINEAR    1.58383E-01   174.80    0.00000E+00     0.00
   65.00   105.00      -9.46 -999.99   -9.46    0.00000     0.00  LINEAR    5.24432E-02  -166.55    0.00000E+00     0.00
   70.00   105.00      -8.37 -999.99   -8.37    0.00000     0.00  LINEAR    5.94684E-02   -93.93    0.00000E+00     0.00
   75.00   105.00     -12.37 -999.99  -12.37    0.00000     0.00  LINEAR    3.75341E-02   -89.73    0.00000E+00     0.00
   80.00   105.00      -8.17 -999.99   -8.17    0.00000     0.00  LINEAR    6.08703E-02    77.45    0.00000E+00     0.00
   85.00   105.00       0.73 -999.99    0.73    0.00000     0.00  LINEAR    1.69500E-01    78.58    0.00000E+00     0.00
   90.00   105.00       2.58 -999.99    2.58    0.00000     0.00  LINEAR    2.09742E-01    84.54    0.00000E+00     0.00
    0.00   110.00    -999.99 -999.99 -999.99    0.00000     0.00            0.00000E+00     0.00    0.00000E+00     0.00
    5.00   110.00      -9.97 -999.99   -9.97    0.00000     0.00  LINEAR    4.94926E-02   121.74    0.00000E+00     0.00
   10.00   110.00      -4.51 -999.99   -4.51    0.00000     0.00  LINEAR    9.28217E-02    74.17    0.00000E+00     0.00
   15.00   110.00      -1.60 -999.99   -1.60    0.00000     0.00  LINEAR    1.29657E-01    31.60    0.00000E+00     0.00
   20.00   110.00      -0.55 -999.99   -0.55    0.00000     0.00  LINEAR    1.46274E-01   -10.85    0.00000E+00     0.00
   25.00   110.00      -0.52 -999.99   -0.52    0.00000     0.00  LINEAR    1.46783E-01   -50.19    0.00000E+00     0.00
   30.00   110.00      -3.64 -999.99   -3.64    0.00000     0.00  LINEAR    1.02549E-01   -80.62    0.00000E+00     0.00
   35.00   110.00     -13.33 -999.99  -13.33    0.00000     0.00  LINEAR    3.35957E-02   -74.23    0.00000E+00     0.00
   40.00   110.00      -4.36 -999.99   -4.36    0.00000     0.00  LINEAR    9.43644E-02   -16.95    0.00000E+00     0.00
   45.00   110.00       2.08 -999.99    2.08    0.00000     0.00  LINEAR    1.98220E-01   -38.41    0.00000E+00     0.00
   50.00   110.00       4.30 -999.99    4.30    0.00000     0.00  LINEAR    2.55858E-01   -63.37    0.00000E+00     0.00
   55.00   110.00       3.77 -999.99    3.77    0.00000     0.00  LINEAR    2.40773E-01   -85.96    0.00000E+00     0.00
   60.00   110.00      -0.09 -999.99   -0.09    0.00000     0.00  LINEAR    1.54291E-01   -99.89    0.00000E+00     0.00
   65.00   110.00      -9.79 -999.99   -9.79    0.00000     0.00  LINEAR    5.05372E-02   -74.20    0.00000E+00     0.00
   70.00   110.00      -7.76 -999.99   -7.76    0.00000     0.00  LINEAR    6.38100E-02     0.63    0.00000E+00     0.00
   75.00   110.00     -11.28 -999.99  -11.28    0.00000     0.00  LINEAR    4.25372E-02     7.51    0.00000E+00     0.00
   80.00   110.00      -8.66 -999.99   -8.66    0.00000     0.00  LINEAR    5.75519E-02   172.23    0.00000E+00     0.00
   85.00   110.00       0.64 -999.99    0.64    0.00000     0.00  LINEAR    1.67756E-01   175.84    0.00000E+00     0.00
   90.00   110.00       2.54 -999.99    2.54    0.00000     0.00  LINEAR    2.09000E-01  -177.83    0.00000E+00     0.00
    0.00   115.00    -999.99 -999.99 -999.99    0.00000     0.00            0.00000E+00     0.00    0.00000E+00     0.00
    5.00   115.00      -9.97 -999.99   -9.97    0.00000     0.00  LINEAR    4.94766E-02   130.63    0.00000E+00     0.00
   10.00   115.00      -4.53 -999.99   -4.53    0.00000     0.00  LINEAR    9.25439E-02    92.65    0.00000E+00     0.00
   15.00   115.00      -1.56 -999.99   -1.56    0.00000     0.00  LINEAR    1.30287E-01    58.93    0.00000E+00     0.00
   20.00   115.00      -0.49 -999.99   -0.49    0.00000     0.00  LINEAR    1.47393E-01    24.41    0.00000E+00     0.00
   25.00   115.00      -0.45 -999.99   -0.45    0.00000     0.00  LINEAR    1.48052E-01    -9.31    0.00000E+00     0.00
   30.00   115.00      -3.43 -999.99   -3.43    0.00000     0.00  LINEAR    1.05072E-01   -32.19    0.00000E+00     0.00
   35.00   115.00     -13.32 -999.99  -13.32    0.00000     0.00  LINEAR    3.36464E-02    -7.50    0.00000E+00     0.00
   40.00   115.00      -3.90 -999.99   -3.90    0.00000     0.00  LINEAR    9.95668E-02    50.47    0.00000E+00     0.00
   45.00   115.00       2.12 -999.99    2.12    0.00000     0.00  LINEAR    1.99014E-01    34.15    0.00000E+00     0.00
   50.00   115.00       4.31 -999.99    4.31    0.00000     0.00  LINEAR    2.56049E-01    15.29    0.00000E+00     0.00
   55.00   115.00       3.82 -999.99    3.82    0.00000     0.00  LINEAR    2.41945E-01    -1.75    0.00000E+00     0.00
   60.00   115.00       0.16 -999.99    0.16    0.00000     0.00  LINEAR    1.58894E-01   -10.71    0.00000E+00     0.00
   65.00   115.00      -8.60 -999.99   -8.60    0.00000     0.00  LINEAR    5.79545E-02    18.90    0.00000E+00     0.00
   70.00   115.00      -7.13 -999.99   -7.13    0.00000     0.00  LINEAR    6.86246E-02    92.88    0.00000E+00     0.00
   75.00   115.00     -10.49 -999.99  -10.49    0.00000     0.00  LINEAR    4.65803E-02   105.95    0.00000E+00     0.00
   80.00   115.00      -8.79 -999.99   -8.79    0.00000     0.00  LINEAR    5.66539E-02   -89.88    0.00000E+00     0.00
   85.00   115.00       0.68 -999.99    0.68    0.00000     0.00  LINEAR    1.68549E-01   -82.77    0.00000E+00     0.00
   90.00   115.00       2.59 -999.99    2.59    0.00000     0.00  LINEAR    2.10022E-01   -75.54    0.00000E+00     0.00
    0.00   120.00    -999.99 -999.99 -999.99    0.00000     0.00            0.00000E+00     0.00    0.00000E+00     0.00
    5.00   120.00      -9.97 -999.99   -9.97    0.00000     0.00  LINEAR    4.94621E-02   139.82    0.00000E+00     0.00
   10.00   120.00      -4.52 -999.99   -4.52    0.00000     0.00  LINEAR    9.26909E-02   111.61    0.00000E+00     0.00
   15.00   120.00      -1.42 -999.99   -1.42    0.00000     0.00  LINEAR    1.32373E-01    86.71    0.00000E+00     0.00
   20.00   120.00      -0.42 -999.99   -0.42    0.00000     0.00  LINEAR    1.48485E-01    60.90    0.00000E+00     0.00
   25.00   120.00      -0.79 -999.99   -0.79    0.00000     0.00  LINEAR    1.42299E-01    33.78    0.00000E+00     0.00
   30.00   120.00      -3.76 -999.99   -3.76    0.00000     0.00  LINEAR    1.01092E-01    18.57    0.00000E+00     0.00
   35.00   120.00     -12.47 -999.99  -12.47    0.00000     0.00  LINEAR    3.71036E-02    55.94    0.00000E+00     0.00
   40.00   120.00      -3.82 -999.99   -3.82    0.00000     0.00  LINEAR    1.00423E-01   116.75    0.00000E+00     0.00
   45.00   120.00       2.07 -999.99    2.07    0.00000     0.00  LINEAR    1.97803E-01   108.60    0.00000E+00     0.00
   50.00   120.00       4.36 -999.99    4.36    0.00000     0.00  LINEAR    2.57463E-01    96.54    0.00000E+00     0.00
   55.00   120.00       3.79 -999.99    3.79    0.00000     0.00  LINEAR    2.41078E-01    85.15    0.00000E+00     0.00
   60.00   120.00       0.02 -999.99    0.02    0.00000     0.00  LINEAR    1.56291E-01    79.15    0.00000E+00     0.00
   65.00   120.00      -9.11 -999.99   -9.11    0.00000     0.00  LINEAR    5.46520E-02   106.64    0.00000E+00     0.00
   70.00   120.00      -8.14 -999.99   -8.14    0.00000     0.00  LINEAR    6.10679E-02  -169.52    0.00000E+00     0.00
   75.00   120.00     -11.37 -999.99  -11.37    0.00000     0.00  LINEAR    4.20927E-02  -154.08    0.00000E+00     0.00
   80.00   120.00      -8.38 -999.99   -8.38    0.00000     0.00  LINEAR    5.93980E-02    15.91    0.00000E+00     0.00
   85.00   120.00       0.90 -999.99    0.90    0.00000     0.00  LINEAR    1.72865E-01    22.73    0.00000E+00     0.00
   90.00   120.00       2.81 -999.99    2.81    0.00000     0.00  LINEAR    2.15391E-01    30.10    0.00000E+00     0.00
    0.00   125.00    -999.99 -999.99 -999.99    0.00000     0.00            0.00000E+00     0.00    0.00000E+00     0.00
    5.00   125.00      -9.98 -999.99   -9.98    0.00000     0.00  LINEAR    4.94458E-02   149.22    0.00000E+00     0.00
   10.00   125.00      -4.48 -999.99   -4.48    0.00000     0.00  LINEAR    9.30553E-02   130.83    0.00000E+00     0.00
   15.00   125.00      -1.26 -999.99   -1.26    0.00000     0.00  LINEAR    1.34871E-01   114.35    0.00000E+00     0.00
   20.00   125.00      -0.31 -999.99   -0.31    0.00000     0.00  LINEAR    1.50535E-01    98.03    0.00000E+00     0.00
   25.00   125.00      -1.17 -999.99   -1.17    0.00000     0.00  LINEAR    1.36225E-01    80.75    0.00000E+00     0.00
   30.00   125.00      -4.06 -999.99   -4.06    0.00000     0.00  LINEAR    9.76941E-02    74.61    0.00000E+00     0.00
   35.00   125.00     -11.46 -999.99  -11.46    0.00000     0.00  LINEAR    4.16791E-02   117.19    0.00000E+00     0.00
   40.00   125.00      -3.89 -999.99   -3.89    0.00000     0.00  LINEAR    9.95952E-02  -173.13    0.00000E+00     0.00
   45.00   125.00       1.97 -999.99    1.97    0.00000     0.00  LINEAR    1.95609E-01  -174.02    0.00000E+00     0.00
[...]
   40.00   315.00      -3.91 -999.99   -3.91    0.00000     0.00  LINEAR    9.93473E-02   -31.40    0.00000E+00     0.00
   45.00   315.00       2.16 -999.99    2.16    0.00000     0.00  LINEAR    1.99878E-01   -17.61    0.00000E+00     0.00
   50.00   315.00       4.33 -999.99    4.33    0.00000     0.00  LINEAR    2.56619E-01   -11.21    0.00000E+00     0.00
   55.00   315.00       3.92 -999.99    3.92    0.00000     0.00  LINEAR    2.44869E-01    -5.04    0.00000E+00     0.00
   60.00   315.00       0.22 -999.99    0.22    0.00000     0.00  LINEAR    1.59893E-01     6.10    0.00000E+00     0.00
   65.00   315.00      -9.01 -999.99   -9.01    0.00000     0.00  LINEAR    5.52498E-02    50.23    0.00000E+00     0.00
   70.00   315.00      -7.84 -999.99   -7.84    0.00000     0.00  LINEAR    6.32497E-02   143.45    0.00000E+00     0.00
   75.00   315.00     -11.31 -999.99  -11.31    0.00000     0.00  LINEAR    4.23939E-02   167.46    0.00000E+00     0.00
   80.00   315.00      -8.35 -999.99   -8.35    0.00000     0.00  LINEAR    5.95936E-02   -18.96    0.00000E+00     0.00
   85.00   315.00       0.85 -999.99    0.85    0.00000     0.00  LINEAR    1.72037E-01    -8.11    0.00000E+00     0.00
   90.00   315.00       2.76 -999.99    2.76    0.00000     0.00  LINEAR    2.14260E-01     0.50    0.00000E+00     0.00
    0.00   320.00    -999.99 -999.99 -999.99    0.00000     0.00            0.00000E+00     0.00    0.00000E+00     0.00
    5.00   320.00      -9.98 -999.99   -9.98    0.00000     0.00  LINEAR    4.94252E-02   158.78    0.00000E+00     0.00
   10.00   320.00      -4.45 -999.99   -4.45    0.00000     0.00  LINEAR    9.34022E-02   150.17    0.00000E+00     0.00
   15.00   320.00      -1.17 -999.99   -1.17    0.00000     0.00  LINEAR    1.36238E-01   141.70    0.00000E+00     0.00
   20.00   320.00      -0.20 -999.99   -0.20    0.00000     0.00  LINEAR    1.52413E-01   134.99    0.00000E+00     0.00
   25.00   320.00      -1.23 -999.99   -1.23    0.00000     0.00  LINEAR    1.35354E-01   129.43    0.00000E+00     0.00
   30.00   320.00      -3.77 -999.99   -3.77    0.00000     0.00  LINEAR    1.00969E-01   130.76    0.00000E+00     0.00
   35.00   320.00     -10.80 -999.99  -10.80    0.00000     0.00  LINEAR    4.49561E-02   171.46    0.00000E+00     0.00
   40.00   320.00      -3.81 -999.99   -3.81    0.00000     0.00  LINEAR    1.00526E-01  -102.83    0.00000E+00     0.00
   45.00   320.00       2.09 -999.99    2.09    0.00000     0.00  LINEAR    1.98322E-01   -95.56    0.00000E+00     0.00
   50.00   320.00       4.31 -999.99    4.31    0.00000     0.00  LINEAR    2.56033E-01   -96.08    0.00000E+00     0.00
   55.00   320.00       3.81 -999.99    3.81    0.00000     0.00  LINEAR    2.41654E-01   -95.01    0.00000E+00     0.00
   60.00   320.00      -0.13 -999.99   -0.13    0.00000     0.00  LINEAR    1.53673E-01   -88.55    0.00000E+00     0.00
   65.00   320.00      -9.51 -999.99   -9.51    0.00000     0.00  LINEAR    5.21524E-02   -48.66    0.00000E+00     0.00
   70.00   320.00      -8.33 -999.99   -8.33    0.00000     0.00  LINEAR    5.97385E-02    37.21    0.00000E+00     0.00
   75.00   320.00     -12.32 -999.99  -12.32    0.00000     0.00  LINEAR    3.77270E-02    52.24    0.00000E+00     0.00
   80.00   320.00      -8.31 -999.99   -8.31    0.00000     0.00  LINEAR    5.98835E-02  -122.11    0.00000E+00     0.00
   85.00   320.00       0.66 -999.99    0.66    0.00000     0.00  LINEAR    1.68220E-01  -117.04    0.00000E+00     0.00
   90.00   320.00       2.52 -999.99    2.52    0.00000     0.00  LINEAR    2.08308E-01  -109.30    0.00000E+00     0.00
    0.00   325.00    -999.99 -999.99 -999.99    0.00000     0.00            0.00000E+00     0.00    0.00000E+00     0.00
    5.00   325.00      -9.98 -999.99   -9.98    0.00000     0.00  LINEAR    4.94458E-02   149.22    0.00000E+00     0.00
   10.00   325.00      -4.48 -999.99   -4.48    0.00000     0.00  LINEAR    9.30553E-02   130.83    0.00000E+00     0.00
   15.00   325.00      -1.26 -999.99   -1.26    0.00000     0.00  LINEAR    1.34871E-01   114.35    0.00000E+00     0.00
   20.00   325.00      -0.31 -999.99   -0.31    0.00000     0.00  LINEAR    1.50535E-01    98.03    0.00000E+00     0.00
   25.00   325.00      -1.17 -999.99   -1.17    0.00000     0.00  LINEAR    1.36225E-01    80.75    0.00000E+00     0.00
   30.00   325.00      -4.06 -999.99   -4.06    0.00000     0.00  LINEAR    9.76941E-02    74.61    0.00000E+00     0.00
   35.00   325.00     -11.46 -999.99  -11.46    0.00000     0.00  LINEAR    4.16791E-02   117.19    0.00000E+00     0.00
   40.00   325.00      -3.89 -999.99   -3.89    0.00000     0.00  LINEAR    9.95952E-02  -173.13    0.00000E+00     0.00
   45.00   325.00       1.97 -999.99    1.97    0.00000     0.00  LINEAR    1.95609E-01  -174.02    0.00000E+00     0.00
   50.00   325.00       4.33 -999.99    4.33    0.00000     0.00  LINEAR    2.56812E-01   179.18    0.00000E+00     0.00
   55.00   325.00       3.77 -999.99    3.77    0.00000     0.00  LINEAR    2.40739E-01   173.98    0.00000E+00     0.00
   60.00   325.00      -0.22 -999.99   -0.22    0.00000     0.00  LINEAR    1.52083E-01   173.93    0.00000E+00     0.00
   65.00   325.00      -9.74 -999.99   -9.74    0.00000     0.00  LINEAR    5.07775E-02  -150.43    0.00000E+00     0.00
   70.00   325.00      -7.51 -999.99   -7.51    0.00000     0.00  LINEAR    6.56788E-02   -65.93    0.00000E+00     0.00
   75.00   325.00      -9.83 -999.99   -9.83    0.00000     0.00  LINEAR    5.02557E-02   -51.61    0.00000E+00     0.00
   80.00   325.00     -10.33 -999.99  -10.33    0.00000     0.00  LINEAR    4.74453E-02   120.46    0.00000E+00     0.00
   85.00   325.00       0.17 -999.99    0.17    0.00000     0.00  LINEAR    1.58941E-01   128.94    0.00000E+00     0.00
   90.00   325.00       2.21 -999.99    2.21    0.00000     0.00  LINEAR    2.01166E-01   136.71    0.00000E+00     0.00
    0.00   330.00    -999.99 -999.99 -999.99    0.00000     0.00            0.00000E+00     0.00    0.00000E+00     0.00
    5.00   330.00      -9.97 -999.99   -9.97    0.00000     0.00  LINEAR    4.94621E-02   139.82    0.00000E+00     0.00
   10.00   330.00      -4.52 -999.99   -4.52    0.00000     0.00  LINEAR    9.26909E-02   111.61    0.00000E+00     0.00
   15.00   330.00      -1.42 -999.99   -1.42    0.00000     0.00  LINEAR    1.32373E-01    86.71    0.00000E+00     0.00
   20.00   330.00      -0.42 -999.99   -0.42    0.00000     0.00  LINEAR    1.48485E-01    60.90    0.00000E+00     0.00
   25.00   330.00      -0.79 -999.99   -0.79    0.00000     0.00  LINEAR    1.42299E-01    33.78    0.00000E+00     0.00
   30.00   330.00      -3.76 -999.99   -3.76    0.00000     0.00  LINEAR    1.01092E-01    18.57    0.00000E+00     0.00
   35.00   330.00     -12.47 -999.99  -12.47    0.00000     0.00  LINEAR    3.71036E-02    55.94    0.00000E+00     0.00
   40.00   330.00      -3.82 -999.99   -3.82    0.00000     0.00  LINEAR    1.00423E-01   116.75    0.00000E+00     0.00
   45.00   330.00       2.07 -999.99    2.07    0.00000     0.00  LINEAR    1.97803E-01   108.60    0.00000E+00     0.00
   50.00   330.00       4.36 -999.99    4.36    0.00000     0.00  LINEAR    2.57463E-01    96.54    0.00000E+00     0.00
   55.00   330.00       3.79 -999.99    3.79    0.00000     0.00  LINEAR    2.41078E-01    85.15    0.00000E+00     0.00
   60.00   330.00       0.02 -999.99    0.02    0.00000     0.00  LINEAR    1.56291E-01    79.15    0.00000E+00     0.00
   65.00   330.00      -9.11 -999.99   -9.11    0.00000     0.00  LINEAR    5.46520E-02   106.64    0.00000E+00     0.00
   70.00   330.00      -8.14 -999.99   -8.14    0.00000     0.00  LINEAR    6.10679E-02  -169.52    0.00000E+00     0.00
   75.00   330.00     -11.37 -999.99  -11.37    0.00000     0.00  LINEAR    4.20927E-02  -154.08    0.00000E+00     0.00
   80.00   330.00      -8.38 -999.99   -8.38    0.00000     0.00  LINEAR    5.93980E-02    15.91    0.00000E+00     0.00
   85.00   330.00       0.90 -999.99    0.90    0.00000     0.00  LINEAR    1.72865E-01    22.73    0.00000E+00     0.00
   90.00   330.00       2.81 -999.99    2.81    0.00000     0.00  LINEAR    2.15391E-01    30.10    0.00000E+00     0.00
    0.00   335.00    -999.99 -999.99 -999.99    0.00000     0.00            0.00000E+00     0.00    0.00000E+00     0.00
    5.00   335.00      -9.97 -999.99   -9.97    0.00000     0.00  LINEAR    4.94766E-02   130.63    0.00000E+00     0.00
   10.00   335.00      -4.53 -999.99   -4.53    0.00000     0.00  LINEAR    9.25439E-02    92.65    0.00000E+00     0.00
   15.00   335.00      -1.56 -999.99   -1.56    0.00000     0.00  LINEAR    1.30287E-01    58.93    0.00000E+00     0.00
   20.00   335.00      -0.49 -999.99   -0.49    0.00000     0.00  LINEAR    1.47393E-01    24.41    0.00000E+00     0.00
   25.00   335.00      -0.45 -999.99   -0.45    0.00000     0.00  LINEAR    1.48052E-01    -9.31    0.00000E+00     0.00
   30.00   335.00      -3.43 -999.99   -3.43    0.00000     0.00  LINEAR    1.05072E-01   -32.19    0.00000E+00     0.00
   35.00   335.00     -13.32 -999.99  -13.32    0.00000     0.00  LINEAR    3.36464E-02    -7.50    0.00000E+00     0.00
   40.00   335.00      -3.90 -999.99   -3.90    0.00000     0.00  LINEAR    9.95668E-02    50.47    0.00000E+00     0.00
   45.00   335.00       2.12 -999.99    2.12    0.00000     0.00  LINEAR    1.99014E-01    34.15    0.00000E+00     0.00
   50.00   335.00       4.31 -999.99    4.31    0.00000     0.00  LINEAR    2.56049E-01    15.29    0.00000E+00     0.00
   55.00   335.00       3.82 -999.99    3.82    0.00000     0.00  LINEAR    2.41945E-01    -1.75    0.00000E+00     0.00
   60.00   335.00       0.16 -999.99    0.16    0.00000     0.00  LINEAR    1.58894E-01   -10.71    0.00000E+00     0.00
   65.00   335.00      -8.60 -999.99   -8.60    0.00000     0.00  LINEAR    5.79545E-02    18.90    0.00000E+00     0.00
   70.00   335.00      -7.13 -999.99   -7.13    0.00000     0.00  LINEAR    6.86246E-02    92.88    0.00000E+00     0.00
   75.00   335.00     -10.49 -999.99  -10.49    0.00000     0.00  LINEAR    4.65803E-02   105.95    0.00000E+00     0.00
   80.00   335.00      -8.79 -999.99   -8.79    0.00000     0.00  LINEAR    5.66539E-02   -89.88    0.00000E+00     0.00
   85.00   335.00       0.68 -999.99    0.68    0.00000     0.00  LINEAR    1.68549E-01   -82.77    0.00000E+00     0.00
   90.00   335.00       2.59 -999.99    2.59    0.00000     0.00  LINEAR    2.10022E-01   -75.54    0.00000E+00     0.00
    0.00   340.00    -999.99 -999.99 -999.99    0.00000     0.00            0.00000E+00     0.00    0.00000E+00     0.00
    5.00   340.00      -9.97 -999.99   -9.97    0.00000     0.00  LINEAR    4.94926E-02   121.74    0.00000E+00     0.00
   10.00   340.00      -4.51 -999.99   -4.51    0.00000     0.00  LINEAR    9.28217E-02    74.17    0.00000E+00     0.00
   15.00   340.00      -1.60 -999.99   -1.60    0.00000     0.00  LINEAR    1.29657E-01    31.60    0.00000E+00     0.00
   20.00   340.00      -0.55 -999.99   -0.55    0.00000     0.00  LINEAR    1.46274E-01   -10.85    0.00000E+00     0.00
   25.00   340.00      -0.52 -999.99   -0.52    0.00000     0.00  LINEAR    1.46783E-01   -50.19    0.00000E+00     0.00
   30.00   340.00      -3.64 -999.99   -3.64    0.00000     0.00  LINEAR    1.02549E-01   -80.62    0.00000E+00     0.00
   35.00   340.00     -13.33 -999.99  -13.33    0.00000     0.00  LINEAR    3.35957E-02   -74.23    0.00000E+00     0.00
   40.00   340.00      -4.36 -999.99   -4.36    0.00000     0.00  LINEAR    9.43644E-02   -16.95    0.00000E+00     0.00
   45.00   340.00       2.08 -999.99    2.08    0.00000     0.00  LINEAR    1.98220E-01   -38.41    0.00000E+00     0.00
   50.00   340.00       4.30 -999.99    4.30    0.00000     0.00  LINEAR    2.55858E-01   -63.37    0.00000E+00     0.00
   55.00   340.00       3.77 -999.99    3.77    0.00000     0.00  LINEAR    2.40773E-01   -85.96    0.00000E+00     0.00
   60.00   340.00      -0.09 -999.99   -0.09    0.00000     0.00  LINEAR    1.54291E-01   -99.89    0.00000E+00     0.00
   65.00   340.00      -9.79 -999.99   -9.79    0.00000     0.00  LINEAR    5.05372E-02   -74.20    0.00000E+00     0.00
   70.00   340.00      -7.76 -999.99   -7.76    0.00000     0.00  LINEAR    6.38100E-02     0.63    0.00000E+00     0.00
   75.00   340.00     -11.28 -999.99  -11.28    0.00000     0.00  LINEAR    4.25372E-02     7.51    0.00000E+00     0.00
   80.00   340.00      -8.66 -999.99   -8.66    0.00000     0.00  LINEAR    5.75519E-02   172.23    0.00000E+00     0.00
   85.00   340.00       0.64 -999.99    0.64    0.00000     0.00  LINEAR    1.67756E-01   175.84    0.00000E+00     0.00
   90.00   340.00       2.54 -999.99    2.54    0.00000     0.00  LINEAR    2.09000E-01  -177.83    0.00000E+00     0.00
    0.00   345.00    -999.99 -999.99 -999.99    0.00000     0.00            0.00000E+00     0.00    0.00000E+00     0.00
    5.00   345.00      -9.96 -999.99   -9.96    0.00000     0.00  LINEAR    4.95125E-02   113.21    0.00000E+00     0.00
   10.00   345.00      -4.43 -999.99   -4.43    0.00000     0.00  LINEAR    9.35827E-02    56.49    0.00000E+00     0.00
   15.00   345.00      -1.55 -999.99   -1.55    0.00000     0.00  LINEAR    1.30493E-01     5.50    0.00000E+00     0.00
   20.00   345.00      -0.65 -999.99   -0.65    0.00000     0.00  LINEAR    1.44660E-01   -45.05    0.00000E+00     0.00
   25.00   345.00      -0.86 -999.99   -0.86    0.00000     0.00  LINEAR    1.41279E-01   -91.62    0.00000E+00     0.00
   30.00   345.00      -4.06 -999.99   -4.06    0.00000     0.00  LINEAR    9.76558E-02  -129.68    0.00000E+00     0.00
   35.00   345.00     -12.29 -999.99  -12.29    0.00000     0.00  LINEAR    3.78765E-02  -130.44    0.00000E+00     0.00
   40.00   345.00      -4.07 -999.99   -4.07    0.00000     0.00  LINEAR    9.75543E-02   -83.66    0.00000E+00     0.00
   45.00   345.00       2.11 -999.99    2.11    0.00000     0.00  LINEAR    1.98762E-01  -108.25    0.00000E+00     0.00
   50.00   345.00       4.30 -999.99    4.30    0.00000     0.00  LINEAR    2.55703E-01  -139.14    0.00000E+00     0.00
   55.00   345.00       3.91 -999.99    3.91    0.00000     0.00  LINEAR    2.44596E-01  -166.98    0.00000E+00     0.00
   60.00   345.00       0.14 -999.99    0.14    0.00000     0.00  LINEAR    1.58383E-01   174.80    0.00000E+00     0.00
   65.00   345.00      -9.46 -999.99   -9.46    0.00000     0.00  LINEAR    5.24432E-02  -166.55    0.00000E+00     0.00
   70.00   345.00      -8.37 -999.99   -8.37    0.00000     0.00  LINEAR    5.94684E-02   -93.93    0.00000E+00     0.00
   75.00   345.00     -12.37 -999.99  -12.37    0.00000     0.00  LINEAR    3.75341E-02   -89.73    0.00000E+00     0.00
   80.00   345.00      -8.17 -999.99   -8.17    0.00000     0.00  LINEAR    6.08703E-02    77.45    0.00000E+00     0.00
   85.00   345.00       0.73 -999.99    0.73    0.00000     0.00  LINEAR    1.69500E-01    78.58    0.00000E+00     0.00
   90.00   345.00       2.58 -999.99    2.58    0.00000     0.00  LINEAR    2.09742E-01    84.54    0.00000E+00     0.00
    0.00   350.00    -999.99 -999.99 -999.99    0.00000     0.00            0.00000E+00     0.00    0.00000E+00     0.00
    5.00   350.00      -9.96 -999.99   -9.96    0.00000     0.00  LINEAR    4.95366E-02   105.13    0.00000E+00     0.00
   10.00   350.00      -4.33 -999.99   -4.33    0.00000     0.00  LINEAR    9.46955E-02    39.89    0.00000E+00     0.00
   15.00   350.00      -1.44 -999.99   -1.44    0.00000     0.00  LINEAR    1.32060E-01   -18.87    0.00000E+00     0.00
   20.00   350.00      -0.69 -999.99   -0.69    0.00000     0.00  LINEAR    1.44052E-01   -78.18    0.00000E+00     0.00
   25.00   350.00      -0.93 -999.99   -0.93    0.00000     0.00  LINEAR    1.40022E-01  -133.28    0.00000E+00     0.00
   30.00   350.00      -4.27 -999.99   -4.27    0.00000     0.00  LINEAR    9.53362E-02  -178.16    0.00000E+00     0.00
   35.00   350.00     -12.70 -999.99  -12.70    0.00000     0.00  LINEAR    3.61230E-02  -177.83    0.00000E+00     0.00
   40.00   350.00      -3.70 -999.99   -3.70    0.00000     0.00  LINEAR    1.01856E-01  -142.14    0.00000E+00     0.00
   45.00   350.00       2.15 -999.99    2.15    0.00000     0.00  LINEAR    1.99779E-01  -174.33    0.00000E+00     0.00
   50.00   350.00       4.34 -999.99    4.34    0.00000     0.00  LINEAR    2.56908E-01   149.21    0.00000E+00     0.00
   55.00   350.00       3.88 -999.99    3.88    0.00000     0.00  LINEAR    2.43642E-01   117.38    0.00000E+00     0.00
   60.00   350.00      -0.11 -999.99   -0.11    0.00000     0.00  LINEAR    1.53913E-01    95.05    0.00000E+00     0.00
   65.00   350.00      -9.69 -999.99   -9.69    0.00000     0.00  LINEAR    5.10733E-02   111.13    0.00000E+00     0.00
   70.00   350.00      -7.92 -999.99   -7.92    0.00000     0.00  LINEAR    6.26362E-02   175.35    0.00000E+00     0.00
   75.00   350.00     -10.87 -999.99  -10.87    0.00000     0.00  LINEAR    4.46181E-02   172.29    0.00000E+00     0.00
   80.00   350.00      -9.81 -999.99   -9.81    0.00000     0.00  LINEAR    5.04100E-02   -13.28    0.00000E+00     0.00
   85.00   350.00       0.18 -999.99    0.18    0.00000     0.00  LINEAR    1.59100E-01   -15.95    0.00000E+00     0.00
   90.00   350.00       2.17 -999.99    2.17    0.00000     0.00  LINEAR    2.00239E-01   -10.78    0.00000E+00     0.00
    0.00   355.00    -999.99 -999.99 -999.99    0.00000     0.00            0.00000E+00     0.00    0.00000E+00     0.00
    5.00   355.00      -9.95 -999.99   -9.95    0.00000     0.00  LINEAR    4.95633E-02    97.55    0.00000E+00     0.00
   10.00   355.00      -4.22 -999.99   -4.22    0.00000     0.00  LINEAR    9.58934E-02    24.60    0.00000E+00     0.00
   15.00   355.00      -1.35 -999.99   -1.35    0.00000     0.00  LINEAR    1.33482E-01   -41.28    0.00000E+00     0.00
   20.00   355.00      -0.59 -999.99   -0.59    0.00000     0.00  LINEAR    1.45746E-01  -109.30    0.00000E+00     0.00
   25.00   355.00      -0.63 -999.99   -0.63    0.00000     0.00  LINEAR    1.44982E-01  -171.62    0.00000E+00     0.00
   30.00   355.00      -4.19 -999.99   -4.19    0.00000     0.00  LINEAR    9.62136E-02   136.37    0.00000E+00     0.00
   35.00   355.00     -14.02 -999.99  -14.02    0.00000     0.00  LINEAR    3.10400E-02   126.17    0.00000E+00     0.00
   40.00   355.00      -3.99 -999.99   -3.99    0.00000     0.00  LINEAR    9.84906E-02   162.58    0.00000E+00     0.00
   45.00   355.00       2.13 -999.99    2.13    0.00000     0.00  LINEAR    1.99351E-01   123.72    0.00000E+00     0.00
   50.00   355.00       4.29 -999.99    4.29    0.00000     0.00  LINEAR    2.55415E-01    81.72    0.00000E+00     0.00
   55.00   355.00       3.80 -999.99    3.80    0.00000     0.00  LINEAR    2.41397E-01    44.37    0.00000E+00     0.00
   60.00   355.00      -0.14 -999.99   -0.14    0.00000     0.00  LINEAR    1.53360E-01    16.86    0.00000E+00     0.00
   65.00   355.00     -10.11 -999.99  -10.11    0.00000     0.00  LINEAR    4.86681E-02    27.19    0.00000E+00     0.00
   70.00   355.00      -8.48 -999.99   -8.48    0.00000     0.00  LINEAR    5.87508E-02    96.04    0.00000E+00     0.00
   75.00   355.00     -11.96 -999.99  -11.96    0.00000     0.00  LINEAR    3.93360E-02    95.58    0.00000E+00     0.00
   80.00   355.00      -8.41 -999.99   -8.41    0.00000     0.00  LINEAR    5.91824E-02  -104.45    0.00000E+00     0.00
   85.00   355.00       0.72 -999.99    0.72    0.00000     0.00  LINEAR    1.69447E-01  -104.09    0.00000E+00     0.00
   90.00   355.00       2.61 -999.99    2.61    0.00000     0.00  LINEAR    2.10623E-01   -98.67    0.00000E+00     0.00






 ***** DATA CARD NO.  8   EN   0     0     0     0  0.00000E+00  0.00000E+00  0.00000E+00  0.00000E+00  0.00000E+00  0.00000E+00

 RUN TIME =     0.078
