1



                                 *********************************************

                                    NUMERICAL ELECTROMAGNETICS CODE (NEC-2D)

                                 *********************************************




                                     - - - - COMMENTS - - - -


                                                                                                     
                                                                                                     




                                 - - - STRUCTURE SPECIFICATION - - -

                                     COORDINATES MUST BE INPUT IN
                                     METERS OR BE SCALED TO METERS
                                     BEFORE STRUCTURE INPUT IS ENDED


  WIRE                                                                               NO. OF    FIRST  LAST     TAG
  NO.        X1         Y1         Z1          X2         Y2         Z2      RADIUS   SEG.     SEG.   SEG.     NO.
     1   -7.50000   -5.00000   -5.00000    -7.50000   -5.00000    5.00000    0.00100     20        1    20     101
     2   -2.50000   -5.00000   -5.00000    -2.50000   -5.00000    5.00000    0.00100     20       21    40     102
     3    2.50000   -5.00000   -5.00000     2.50000   -5.00000    5.00000    0.00100     20       41    60     103
     4    7.50000   -5.00000   -5.00000     7.50000   -5.00000    5.00000    0.00100     20       61    80     104
     5   -7.50000    0.00000   -5.00000    -7.50000    0.00000    5.00000    0.00100     20       81   100     201
     6   -2.50000    0.00000   -5.00000    -2.50000    0.00000    5.00000    0.00100     20      101   120     202
     7    2.50000    0.00000   -5.00000     2.50000    0.00000    5.00000    0.00100     20      121   140     203
     8    7.50000    0.00000   -5.00000     7.50000    0.00000    5.00000    0.00100     20      141   160     204
     9   -7.50000    5.00000   -5.00000    -7.50000    5.00000    5.00000    0.00100     20      161   180     301
    10   -2.50000    5.00000   -5.00000    -2.50000    5.00000    5.00000    0.00100     20      181   200     302
    11    2.50000    5.00000   -5.00000     2.50000    5.00000    5.00000    0.00100     20      201   220     303
    12    7.50000    5.00000   -5.00000     7.50000    5.00000    5.00000    0.00100     20      221   240     304

   TOTAL SEGMENTS USED=  240     NO. SEG. IN A SYMMETRIC CELL=  240     SYMMETRY FLAG=  0


         - MULTIPLE WIRE JUNCTIONS -
 JUNCTION    SEGMENTS  (- FOR END 1, + FOR END 2)
  NONE




                                 - - - - SEGMENTATION DATA - - - -

                                        COORDINATES IN METERS

                         I+ AND I- INDICATE THE SEGMENTS BEFORE AND AFTER I


  SEG.   COORDINATES OF SEG. CENTER     SEG.     ORIENTATION ANGLES    WIRE    CONNECTION DATA   TAG
  NO.       X         Y         Z       LENGTH     ALPHA     BETA      RADIUS    I-   I    I+    NO.
     1  -7.50000  -5.00000  -4.75000   0.50000   90.00000   0.00000   0.00100     0    1    2    101
     2  -7.50000  -5.00000  -4.25000   0.50000   90.00000   0.00000   0.00100     1    2    3    101
     3  -7.50000  -5.00000  -3.75000   0.50000   90.00000   0.00000   0.00100     2    3    4    101
     4  -7.50000  -5.00000  -3.25000   0.50000   90.00000   0.00000   0.00100     3    4    5    101
     5  -7.50000  -5.00000  -2.75000   0.50000   90.00000   0.00000   0.00100     4    5    6    101
     6  -7.50000  -5.00000  -2.25000   0.50000   90.00000   0.00000   0.00100     5    6    7    101
     7  -7.50000  -5.00000  -1.75000   0.50000   90.00000   0.00000   0.00100     6    7    8    101
     8  -7.50000  -5.00000  -1.25000   0.50000   90.00000   0.00000   0.00100     7    8    9    101
     9  -7.50000  -5.00000  -0.75000   0.50000   90.00000   0.00000   0.00100     8    9   10    101
    10  -7.50000  -5.00000  -0.25000   0.50000   90.00000   0.00000   0.00100     9   10   11    101
    11  -7.50000  -5.00000   0.25000   0.50000   90.00000   0.00000   0.00100    10   11   12    101
    12  -7.50000  -5.00000   0.75000   0.50000   90.00000   0.00000   0.00100    11   12   13    101
    13  -7.50000  -5.00000   1.25000   0.50000   90.00000   0.00000   0.00100    12   13   14    101
    14  -7.50000  -5.00000   1.75000   0.50000   90.00000   0.00000   0.00100    13   14   15    101
    15  -7.50000  -5.00000   2.25000   0.50000   90.00000   0.00000   0.00100    14   15   16    101
    16  -7.50000  -5.00000   2.75000   0.50000   90.00000   0.00000   0.00100    15   16   17    101
    17  -7.50000  -5.00000   3.25000   0.50000   90.00000   0.00000   0.00100    16   17   18    101
    18  -7.50000  -5.00000   3.75000   0.50000   90.00000   0.00000   0.00100    17   18   19    101
    19  -7.50000  -5.00000   4.25000   0.50000   90.00000   0.00000   0.00100    18   19   20    101
    20  -7.50000  -5.00000   4.75000   0.50000   90.00000   0.00000   0.00100    19   20    0    101
    21  -2.50000  -5.00000  -4.75000   0.50000   90.00000   0.00000   0.00100     0   21   22    102
    22  -2.50000  -5.00000  -4.25000   0.50000   90.00000   0.00000   0.00100    21   22   23    102
    23  -2.50000  -5.00000  -3.75000   0.50000   90.00000   0.00000   0.00100    22   23   24    102
    24  -2.50000  -5.00000  -3.25000   0.50000   90.00000   0.00000   0.00100    23   24   25    102
    25  -2.50000  -5.00000  -2.75000   0.50000   90.00000   0.00000   0.00100    24   25   26    102
    26  -2.50000  -5.00000  -2.25000   0.50000   90.00000   0.00000   0.00100    25   26   27    102
    27  -2.50000  -5.00000  -1.75000   0.50000   90.00000   0.00000   0.00100    26   27   28    102
    28  -2.50000  -5.00000  -1.25000   0.50000   90.00000   0.00000   0.00100    27   28   29    102
    29  -2.50000  -5.00000  -0.75000   0.50000   90.00000   0.00000   0.00100    28   29   30    102
    30  -2.50000  -5.00000  -0.25000   0.50000   90.00000   0.00000   0.00100    29   30   31    102
    31  -2.50000  -5.00000   0.25000   0.50000   90.00000   0.00000   0.00100    30   31   32    102
    32  -2.50000  -5.00000   0.75000   0.50000   90.00000   0.00000   0.00100    31   32   33    102
    33  -2.50000  -5.00000   1.25000   0.50000   90.00000   0.00000   0.00100    32   33   34    102
    34  -2.50000  -5.00000   1.75000   0.50000   90.00000   0.00000   0.00100    33   34   35    102
    35  -2.50000  -5.00000   2.25000   0.50000   90.00000   0.00000   0.00100    34   35   36    102
    36  -2.50000  -5.00000   2.75000   0.50000   90.00000   0.00000   0.00100    35   36   37    102
    37  -2.50000  -5.00000   3.25000   0.50000   90.00000   0.00000   0.00100    36   37   38    102
    38  -2.50000  -5.00000   3.75000   0.50000   90.00000   0.00000   0.00100    37   38   39    102
    39  -2.50000  -5.00000   4.25000   0.50000   90.00000   0.00000   0.00100    38   39   40    102
    40  -2.50000  -5.00000   4.75000   0.50000   90.00000   0.00000   0.00100    39   40    0    102
    41   2.50000  -5.00000  -4.75000   0.50000   90.00000   0.00000   0.00100     0   41   42    103
    42   2.50000  -5.00000  -4.25000   0.50000   90.00000   0.00000   0.00100    41   42   43    103
    43   2.50000  -5.00000  -3.75000   0.50000   90.00000   0.00000   0.00100    42   43   44    103
    44   2.50000  -5.00000  -3.25000   0.50000   90.00000   0.00000   0.00100    43   44   45    103
    45   2.50000  -5.00000  -2.75000   0.50000   90.00000   0.00000   0.00100    44   45   46    103
    46   2.50000  -5.00000  -2.25000   0.50000   90.00000   0.00000   0.00100    45   46   47    103
    47   2.50000  -5.00000  -1.75000   0.50000   90.00000   0.00000   0.00100    46   47   48    103
    48   2.50000  -5.00000  -1.25000   0.50000   90.00000   0.00000   0.00100    47   48   49    103
    49   2.50000  -5.00000  -0.75000   0.50000   90.00000   0.00000   0.00100    48   49   50    103
    50   2.50000  -5.00000  -0.25000   0.50000   90.00000   0.00000   0.00100    49   50   51    103
    51   2.50000  -5.00000   0.25000   0.50000   90.00000   0.00000   0.00100    50   51   52    103
    52   2.50000  -5.00000   0.75000   0.50000   90.00000   0.00000   0.00100    51   52   53    103
    53   2.50000  -5.00000   1.25000   0.50000   90.00000   0.00000   0.00100    52   53   54    103
    54   2.50000  -5.00000   1.75000   0.50000   90.00000   0.00000   0.00100    53   54   55    103
    55   2.50000  -5.00000   2.25000   0.50000   90.00000   0.00000   0.00100    54   55   56    103
    56   2.50000  -5.00000   2.75000   0.50000   90.00000   0.00000   0.00100    55   56   57    103
    57   2.50000  -5.00000   3.25000   0.50000   90.00000   0.00000   0.00100    56   57   58    103
    58   2.50000  -5.00000   3.75000   0.50000   90.00000   0.00000   0.00100    57   58   59    103
    59   2.50000  -5.00000   4.25000   0.50000   90.00000   0.00000   0.00100    58   59   60    103
    60   2.50000  -5.00000   4.75000   0.50000   90.00000   0.00000   0.00100    59   60    0    103
    61   7.50000  -5.00000  -4.75000   0.50000   90.00000   0.00000   0.00100     0   61   62    104
    62   7.50000  -5.00000  -4.25000   0.50000   90.00000   0.00000   0.00100    61   62   63    104
    63   7.50000  -5.00000  -3.75000   0.50000   90.00000   0.00000   0.00100    62   63   64    104
    64   7.50000  -5.00000  -3.25000   0.50000   90.00000   0.00000   0.00100    63   64   65    104
    65   7.50000  -5.00000  -2.75000   0.50000   90.00000   0.00000   0.00100    64   65   66    104
    66   7.50000  -5.00000  -2.25000   0.50000   90.00000   0.00000   0.00100    65   66   67    104
    67   7.50000  -5.00000  -1.75000   0.50000   90.00000   0.00000   0.00100    66   67   68    104
    68   7.50000  -5.00000  -1.25000   0.50000   90.00000   0.00000   0.00100    67   68   69    104
    69   7.50000  -5.00000  -0.75000   0.50000   90.00000   0.00000   0.00100    68   69   70    104
    70   7.50000  -5.00000  -0.25000   0.50000   90.00000   0.00000   0.00100    69   70   71    104
    71   7.50000  -5.00000   0.25000   0.50000   90.00000   0.00000   0.00100    70   71   72    104
    72   7.50000  -5.00000   0.75000   0.50000   90.00000   0.00000   0.00100    71   72   73    104
    73   7.50000  -5.00000   1.25000   0.50000   90.00000   0.00000   0.00100    72   73   74    104
    74   7.50000  -5.00000   1.75000   0.50000   90.00000   0.00000   0.00100    73   74   75    104
    75   7.50000  -5.00000   2.25000   0.50000   90.00000   0.00000   0.00100    74   75   76    104
    76   7.50000  -5.00000   2.75000   0.50000   90.00000   0.00000   0.00100    75   76   77    104
    77   7.50000  -5.00000   3.25000   0.50000   90.00000   0.00000   0.00100    76   77   78    104
    78   7.50000  -5.00000   3.75000   0.50000   90.00000   0.00000   0.00100    77   78   79    104
    79   7.50000  -5.00000   4.25000   0.50000   90.00000   0.00000   0.00100    78   79   80    104
    80   7.50000  -5.00000   4.75000   0.50000   90.00000   0.00000   0.00100    79   80    0    104
    81  -7.50000   0.00000  -4.75000   0.50000   90.00000   0.00000   0.00100     0   81   82    201
    82  -7.50000   0.00000  -4.25000   0.50000   90.00000   0.00000   0.00100    81   82   83    201
    83  -7.50000   0.00000  -3.75000   0.50000   90.00000   0.00000   0.00100    82   83   84    201
    84  -7.50000   0.00000  -3.25000   0.50000   90.00000   0.00000   0.00100    83   84   85    201
    85  -7.50000   0.00000  -2.75000   0.50000   90.00000   0.00000   0.00100    84   85   86    201
    86  -7.50000   0.00000  -2.25000   0.50000   90.00000   0.00000   0.00100    85   86   87    201
    87  -7.50000   0.00000  -1.75000   0.50000   90.00000   0.00000   0.00100    86   87   88    201
    88  -7.50000   0.00000  -1.25000   0.50000   90.00000   0.00000   0.00100    87   88   89    201
    89  -7.50000   0.00000  -0.75000   0.50000   90.00000   0.00000   0.00100    88   89   90    201
    90  -7.50000   0.00000  -0.25000   0.50000   90.00000   0.00000   0.00100    89   90   91    201
    91  -7.50000   0.00000   0.25000   0.50000   90.00000   0.00000   0.00100    90   91   92    201
    92  -7.50000   0.00000   0.75000   0.50000   90.00000   0.00000   0.00100    91   92   93    201
    93  -7.50000   0.00000   1.25000   0.50000   90.00000   0.00000   0.00100    92   93   94    201
    94  -7.50000   0.00000   1.75000   0.50000   90.00000   0.00000   0.00100    93   94   95    201
    95  -7.50000   0.00000   2.25000   0.50000   90.00000   0.00000   0.00100    94   95   96    201
    96  -7.50000   0.00000   2.75000   0.50000   90.00000   0.00000   0.00100    95   96   97    201
    97  -7.50000   0.00000   3.25000   0.50000   90.00000   0.00000   0.00100    96   97   98    201
    98  -7.50000   0.00000   3.75000   0.50000   90.00000   0.00000   0.00100    97   98   99    201
    99  -7.50000   0.00000   4.25000   0.50000   90.00000   0.00000   0.00100    98   99  100    201
   100  -7.50000   0.00000   4.75000   0.50000   90.00000   0.00000   0.00100    99  100    0    201
   101  -2.50000   0.00000  -4.75000   0.50000   90.00000   0.00000   0.00100     0  101  102    202
   102  -2.50000   0.00000  -4.25000   0.50000   90.00000   0.00000   0.00100   101  102  103    202
   103  -2.50000   0.00000  -3.75000   0.50000   90.00000   0.00000   0.00100   102  103  104    202
   104  -2.50000   0.00000  -3.25000   0.50000   90.00000   0.00000   0.00100   103  104  105    202
   105  -2.50000   0.00000  -2.75000   0.50000   90.00000   0.00000   0.00100   104  105  106    202
   106  -2.50000   0.00000  -2.25000   0.50000   90.00000   0.00000   0.00100   105  106  107    202
   107  -2.50000   0.00000  -1.75000   0.50000   90.00000   0.00000   0.00100   106  107  108    202
   108  -2.50000   0.00000  -1.25000   0.50000   90.00000   0.00000   0.00100   107  108  109    202
   109  -2.50000   0.00000  -0.75000   0.50000   90.00000   0.00000   0.00100   108  109  110    202
   110  -2.50000   0.00000  -0.25000   0.50000   90.00000   0.00000   0.00100   109  110  111    202
   111  -2.50000   0.00000   0.25000   0.50000   90.00000   0.00000   0.00100   110  111  112    202
   112  -2.50000   0.00000   0.75000   0.50000   90.00000   0.00000   0.00100   111  112  113    202
   113  -2.50000   0.00000   1.25000   0.50000   90.00000   0.00000   0.00100   112  113  114    202
   114  -2.50000   0.00000   1.75000   0.50000   90.00000   0.00000   0.00100   113  114  115    202
   115  -2.50000   0.00000   2.25000   0.50000   90.00000   0.00000   0.00100   114  115  116    202
   116  -2.50000   0.00000   2.75000   0.50000   90.00000   0.00000   0.00100   115  116  117    202
   117  -2.50000   0.00000   3.25000   0.50000   90.00000   0.00000   0.00100   116  117  118    202
   118  -2.50000   0.00000   3.75000   0.50000   90.00000   0.00000   0.00100   117  118  119    202
   119  -2.50000   0.00000   4.25000   0.50000   90.00000   0.00000   0.00100   118  119  120    202
   120  -2.50000   0.00000   4.75000   0.50000   90.00000   0.00000   0.00100   119  120    0    202
   121   2.50000   0.00000  -4.75000   0.50000   90.00000   0.00000   0.00100     0  121  122    203
   122   2.50000   0.00000  -4.25000   0.50000   90.00000   0.00000   0.00100   121  122  123    203
   123   2.50000   0.00000  -3.75000   0.50000   90.00000   0.00000   0.00100   122  123  124    203
   124   2.50000   0.00000  -3.25000   0.50000   90.00000   0.00000   0.00100   123  124  125    203
   125   2.50000   0.00000  -2.75000   0.50000   90.00000   0.00000   0.00100   124  125  126    203
   126   2.50000   0.00000  -2.25000   0.50000   90.00000   0.00000   0.00100   125  126  127    203
   127   2.50000   0.00000  -1.75000   0.50000   90.00000   0.00000   0.00100   126  127  128    203
   128   2.50000   0.00000  -1.25000   0.50000   90.00000   0.00000   0.00100   127  128  129    203
   129   2.50000   0.00000  -0.75000   0.50000   90.00000   0.00000   0.00100   128  129  130    203
   130   2.50000   0.00000  -0.25000   0.50000   90.00000   0.00000   0.00100   129  130  131    203
   131   2.50000   0.00000   0.25000   0.50000   90.00000   0.00000   0.00100   130  131  132    203
   132   2.50000   0.00000   0.75000   0.50000   90.00000   0.00000   0.00100   131  132  133    203
   133   2.50000   0.00000   1.25000   0.50000   90.00000   0.00000   0.00100   132  133  134    203
   134   2.50000   0.00000   1.75000   0.50000   90.00000   0.00000   0.00100   133  134  135    203
   135   2.50000   0.00000   2.25000   0.50000   90.00000   0.00000   0.00100   134  135  136    203
   136   2.50000   0.00000   2.75000   0.50000   90.00000   0.00000   0.00100   135  136  137    203
   137   2.50000   0.00000   3.25000   0.50000   90.00000   0.00000   0.00100   136  137  138    203
   138   2.50000   0.00000   3.75000   0.50000   90.00000   0.00000   0.00100   137  138  139    203
   139   2.50000   0.00000   4.25000   0.50000   90.00000   0.00000   0.00100   138  139  140    203
   140   2.50000   0.00000   4.75000   0.50000   90.00000   0.00000   0.00100   139  140    0    203
   141   7.50000   0.00000  -4.75000   0.50000   90.00000   0.00000   0.00100     0  141  142    204
   142   7.50000   0.00000  -4.25000   0.50000   90.00000   0.00000   0.00100   141  142  143    204
   143   7.50000   0.00000  -3.75000   0.50000   90.00000   0.00000   0.00100   142  143  144    204
   144   7.50000   0.00000  -3.25000   0.50000   90.00000   0.00000   0.00100   143  144  145    204
   145   7.50000   0.00000  -2.75000   0.50000   90.00000   0.00000   0.00100   144  145  146    204
   146   7.50000   0.00000  -2.25000   0.50000   90.00000   0.00000   0.00100   145  146  147    204
   147   7.50000   0.00000  -1.75000   0.50000   90.00000   0.00000   0.00100   146  147  148    204
   148   7.50000   0.00000  -1.25000   0.50000   90.00000   0.00000   0.00100   147  148  149    204
   149   7.50000   0.00000  -0.75000   0.50000   90.00000   0.00000   0.00100   148  149  150    204
   150   7.50000   0.00000  -0.25000   0.50000   90.00000   0.00000   0.00100   149  150  151    204
   151   7.50000   0.00000   0.25000   0.50000   90.00000   0.00000   0.00100   150  151  152    204
   152   7.50000   0.00000   0.75000   0.50000   90.00000   0.00000   0.00100   151  152  153    204
   153   7.50000   0.00000   1.25000   0.50000   90.00000   0.00000   0.00100   152  153  154    204
   154   7.50000   0.00000   1.75000   0.50000   90.00000   0.00000   0.00100   153  154  155    204
   155   7.50000   0.00000   2.25000   0.50000   90.00000   0.00000   0.00100   154  155  156    204
   156   7.50000   0.00000   2.75000   0.50000   90.00000   0.00000   0.00100   155  156  157    204
   157   7.50000   0.00000   3.25000   0.50000   90.00000   0.00000   0.00100   156  157  158    204
   158   7.50000   0.00000   3.75000   0.50000   90.00000   0.00000   0.00100   157  158  159    204
   159   7.50000   0.00000   4.25000   0.50000   90.00000   0.00000   0.00100   158  159  160    204
   160   7.50000   0.00000   4.75000   0.50000   90.00000   0.00000   0.00100   159  160    0    204
   161  -7.50000   5.00000  -4.75000   0.50000   90.00000   0.00000   0.00100     0  161  162    301
   162  -7.50000   5.00000  -4.25000   0.50000   90.00000   0.00000   0.00100   161  162  163    301
   163  -7.50000   5.00000  -3.75000   0.50000   90.00000   0.00000   0.00100   162  163  164    301
   164  -7.50000   5.00000  -3.25000   0.50000   90.00000   0.00000   0.00100   163  164  165    301
   165  -7.50000   5.00000  -2.75000   0.50000   90.00000   0.00000   0.00100   164  165  166    301
   166  -7.50000   5.00000  -2.25000   0.50000   90.00000   0.00000   0.00100   165  166  167    301
   167  -7.50000   5.00000  -1.75000   0.50000   90.00000   0.00000   0.00100   166  167  168    301
   168  -7.50000   5.00000  -1.25000   0.50000   90.00000   0.00000   0.00100   167  168  169    301
   169  -7.50000   5.00000  -0.75000   0.50000   90.00000   0.00000   0.00100   168  169  170    301
   170  -7.50000   5.00000  -0.25000   0.50000   90.00000   0.00000   0.00100   169  170  171    301
   171  -7.50000   5.00000   0.25000   0.50000   90.00000   0.00000   0.00100   170  171  172    301
   172  -7.50000   5.00000   0.75000   0.50000   90.00000   0.00000   0.00100   171  172  173    301
   173  -7.50000   5.00000   1.25000   0.50000   90.00000   0.00000   0.00100   172  173  174    301
   174  -7.50000   5.00000   1.75000   0.50000   90.00000   0.00000   0.00100   173  174  175    301
   175  -7.50000   5.00000   2.25000   0.50000   90.00000   0.00000   0.00100   174  175  176    301
   176  -7.50000   5.00000   2.75000   0.50000   90.00000   0.00000   0.00100   175  176  177    301
   177  -7.50000   5.00000   3.25000   0.50000   90.00000   0.00000   0.00100   176  177  178    301
   178  -7.50000   5.00000   3.75000   0.50000   90.00000   0.00000   0.00100   177  178  179    301
   179  -7.50000   5.00000   4.25000   0.50000   90.00000   0.00000   0.00100   178  179  180    301
   180  -7.50000   5.00000   4.75000   0.50000   90.00000   0.00000   0.00100   179  180    0    301
   181  -2.50000   5.00000  -4.75000   0.50000   90.00000   0.00000   0.00100     0  181  182    302
   182  -2.50000   5.00000  -4.25000   0.50000   90.00000   0.00000   0.00100   181  182  183    302
   183  -2.50000   5.00000  -3.75000   0.50000   90.00000   0.00000   0.00100   182  183  184    302
   184  -2.50000   5.00000  -3.25000   0.50000   90.00000   0.00000   0.00100   183  184  185    302
   185  -2.50000   5.00000  -2.75000   0.50000   90.00000   0.00000   0.00100   184  185  186    302
   186  -2.50000   5.00000  -2.25000   0.50000   90.00000   0.00000   0.00100   185  186  187    302
   187  -2.50000   5.00000  -1.75000   0.50000   90.00000   0.00000   0.00100   186  187  188    302
   188  -2.50000   5.00000  -1.25000   0.50000   90.00000   0.00000   0.00100   187  188  189    302
   189  -2.50000   5.00000  -0.75000   0.50000   90.00000   0.00000   0.00100   188  189  190    302
   190  -2.50000   5.00000  -0.25000   0.50000   90.00000   0.00000   0.00100   189  190  191    302
   191  -2.50000   5.00000   0.25000   0.50000   90.00000   0.00000   0.00100   190  191  192    302
   192  -2.50000   5.00000   0.75000   0.50000   90.00000   0.00000   0.00100   191  192  193    302
   193  -2.50000   5.00000   1.25000   0.50000   90.00000   0.00000   0.00100   192  193  194    302
   194  -2.50000   5.00000   1.75000   0.50000   90.00000   0.00000   0.00100   193  194  195    302
   195  -2.50000   5.00000   2.25000   0.50000   90.00000   0.00000   0.00100   194  195  196    302
   196  -2.50000   5.00000   2.75000   0.50000   90.00000   0.00000   0.00100   195  196  197    302
   197  -2.50000   5.00000   3.25000   0.50000   90.00000   0.00000   0.00100   196  197  198    302
   198  -2.50000   5.00000   3.75000   0.50000   90.00000   0.00000   0.00100   197  198  199    302
   199  -2.50000   5.00000   4.25000   0.50000   90.00000   0.00000   0.00100   198  199  200    302
   200  -2.50000   5.00000   4.75000   0.50000   90.00000   0.00000   0.00100   199  200    0    302
   201   2.50000   5.00000  -4.75000   0.50000   90.00000   0.00000   0.00100     0  201  202    303
   202   2.50000   5.00000  -4.25000   0.50000   90.00000   0.00000   0.00100   201  202  203    303
   203   2.50000   5.00000  -3.75000   0.50000   90.00000   0.00000   0.00100   202  203  204    303
   204   2.50000   5.00000  -3.25000   0.50000   90.00000   0.00000   0.00100   203  204  205    303
   205   2.50000   5.00000  -2.75000   0.50000   90.00000   0.00000   0.00100   204  205  206    303
   206   2.50000   5.00000  -2.25000   0.50000   90.00000   0.00000   0.00100   205  206  207    303
   207   2.50000   5.00000  -1.75000   0.50000   90.00000   0.00000   0.00100   206  207  208    303
   208   2.50000   5.00000  -1.25000   0.50000   90.00000   0.00000   0.00100   207  208  209    303
   209   2.50000   5.00000  -0.75000   0.50000   90.00000   0.00000   0.00100   208  209  210    303
   210   2.50000   5.00000  -0.25000   0.50000   90.00000   0.00000   0.00100   209  210  211    303
   211   2.50000   5.00000   0.25000   0.50000   90.00000   0.00000   0.00100   210  211  212    303
   212   2.50000   5.00000   0.75000   0.50000   90.00000   0.00000   0.00100   211  212  213    303
   213   2.50000   5.00000   1.25000   0.50000   90.00000   0.00000   0.00100   212  213  214    303
   214   2.50000   5.00000   1.75000   0.50000   90.00000   0.00000   0.00100   213  214  215    303
   215   2.50000   5.00000   2.25000   0.50000   90.00000   0.00000   0.00100   214  215  216    303
   216   2.50000   5.00000   2.75000   0.50000   90.00000   0.00000   0.00100   215  216  217    303
   217   2.50000   5.00000   3.25000   0.50000   90.00000   0.00000   0.00100   216  217  218    303
   218   2.50000   5.00000   3.75000   0.50000   90.00000   0.00000   0.00100   217  218  219    303
   219   2.50000   5.00000   4.25000   0.50000   90.00000   0.00000   0.00100   218  219  220    303
   220   2.50000   5.00000   4.75000   0.50000   90.00000   0.00000   0.00100   219  220    0    303
   221   7.50000   5.00000  -4.75000   0.50000   90.00000   0.00000   0.00100     0  221  222    304
   222   7.50000   5.00000  -4.25000   0.50000   90.00000   0.00000   0.00100   221  222  223    304
   223   7.50000   5.00000  -3.75000   0.50000   90.00000   0.00000   0.00100   222  223  224    304
   224   7.50000   5.00000  -3.25000   0.50000   90.00000   0.00000   0.00100   223  224  225    304
   225   7.50000   5.00000  -2.75000   0.50000   90.00000   0.00000   0.00100   224  225  226    304
   226   7.50000   5.00000  -2.25000   0.50000   90.00000   0.00000   0.00100   225  226  227    304
   227   7.50000   5.00000  -1.75000   0.50000   90.00000   0.00000   0.00100   226  227  228    304
   228   7.50000   5.00000  -1.25000   0.50000   90.00000   0.00000   0.00100   227  228  229    304
   229   7.50000   5.00000  -0.75000   0.50000   90.00000   0.00000   0.00100   228  229  230    304
   230   7.50000   5.00000  -0.25000   0.50000   90.00000   0.00000   0.00100   229  230  231    304
   231   7.50000   5.00000   0.25000   0.50000   90.00000   0.00000   0.00100   230  231  232    304
   232   7.50000   5.00000   0.75000   0.50000   90.00000   0.00000   0.00100   231  232  233    304
   233   7.50000   5.00000   1.25000   0.50000   90.00000   0.00000   0.00100   232  233  234    304
   234   7.50000   5.00000   1.75000   0.50000   90.00000   0.00000   0.00100   233  234  235    304
   235   7.50000   5.00000   2.25000   0.50000   90.00000   0.00000   0.00100   234  235  236    304
   236   7.50000   5.00000   2.75000   0.50000   90.00000   0.00000   0.00100   235  236  237    304
   237   7.50000   5.00000   3.25000   0.50000   90.00000   0.00000   0.00100   236  237  238    304
   238   7.50000   5.00000   3.75000   0.50000   90.00000   0.00000   0.00100   237  238  239    304
   239   7.50000   5.00000   4.25000   0.50000   90.00000   0.00000   0.00100   238  239  240    304
   240   7.50000   5.00000   4.75000   0.50000   90.00000   0.00000   0.00100   239  240    0    304






 ***** DATA CARD NO.  1   GN  -1     0     0     0  1.00000E+01  1.00000E-02  0.00000E+00  0.00000E+00  0.00000E+00  0.00000E+00
 ***** DATA CARD NO.  2   FR   0     0     0     0  1.50000E+02  0.00000E+00  0.00000E+00  0.00000E+00  0.00000E+00  0.00000E+00
 ***** DATA CARD NO.  3   EX   0   101    10     0  1.00000E-09  0.00000E+00  0.00000E+00  0.00000E+00  0.00000E+00  0.00000E+00
 ***** DATA CARD NO.  4   EX   0   102    10     0  1.00000E-09  0.00000E+00  0.00000E+00  0.00000E+00  0.00000E+00  0.00000E+00
 ***** DATA CARD NO.  5   EX   0   103    10     0  1.00000E-09  0.00000E+00  0.00000E+00  0.00000E+00  0.00000E+00  0.00000E+00
 ***** DATA CARD NO.  6   EX   0   104    10     0  1.00000E-09  0.00000E+00  0.00000E+00  0.00000E+00  0.00000E+00  0.00000E+00
 ***** DATA CARD NO.  7   EX   0   201    10     0  1.00000E-09  0.00000E+00  0.00000E+00  0.00000E+00  0.00000E+00  0.00000E+00
 ***** DATA CARD NO.  8   EX   0   202    10     0  1.00000E+00  0.00000E+00  0.00000E+00  0.00000E+00  0.00000E+00  0.00000E+00
 ***** DATA CARD NO.  9   EX   0   203    10     0  1.00000E-09  0.00000E+00  0.00000E+00  0.00000E+00  0.00000E+00  0.00000E+00
 ***** DATA CARD NO. 10   EX   0   204    10     0  1.00000E-09  0.00000E+00  0.00000E+00  0.00000E+00  0.00000E+00  0.00000E+00
 ***** DATA CARD NO. 11   EX   0   301    10     0  1.00000E-09  0.00000E+00  0.00000E+00  0.00000E+00  0.00000E+00  0.00000E+00
 ***** DATA CARD NO. 12   EX   0   302    10     0  1.00000E-09  0.00000E+00  0.00000E+00  0.00000E+00  0.00000E+00  0.00000E+00
 ***** DATA CARD NO. 13   EX   0   303    10     0  1.00000E-09  0.00000E+00  0.00000E+00  0.00000E+00  0.00000E+00  0.00000E+00
 ***** DATA CARD NO. 14   EX   0   304    10     0  1.00000E-09  0.00000E+00  0.00000E+00  0.00000E+00  0.00000E+00  0.00000E+00
 ***** DATA CARD NO. 15   RP   0    19    72  1010  0.00000E+00  0.00000E+00  5.00000E+00  5.00000E+00  0.00000E+00  0.00000E+00




                                 - - - - - - FREQUENCY - - - - - -

                                    FREQUENCY= 1.5000E+02 MHZ
                                    WAVELENGTH= 1.9987E+00 METERS




                    APPROXIMATE INTEGRATION EMPLOYED FOR SEGMENTS MORE THAN   1.000 WAVELENGTHS APART



                               - - - STRUCTURE IMPEDANCE LOADING - - -

                                   THIS STRUCTURE IS NOT LOADED



                                  - - - ANTENNA ENVIRONMENT - - -

                                            FREE SPACE



                                - - - MATRIX TIMING - - -

                        FILL=    0.031 SEC.,  FACTOR=    0.016 SEC.



                                          - - - ANTENNA INPUT PARAMETERS - - -

   TAG   SEG.    VOLTAGE (VOLTS)         CURRENT (AMPS)         IMPEDANCE (OHMS)        ADMITTANCE (MHOS)      POWER
   NO.   NO.    REAL        IMAG.       REAL        IMAG.       REAL        IMAG.       REAL        IMAG.     (WATTS)
   101    10 1.00000E-09 0.00000E+00 8.62473E-05 4.30166E-05 9.28486E-06-4.63091E-06 8.62473E+04 4.30166E+04 4.31236E-14
   102    30 1.00000E-09 0.00000E+00-2.73151E-05 2.26965E-05-2.16573E-05-1.79953E-05-2.73151E+04 2.26965E+04-1.36576E-14
   103    50 1.00000E-09 0.00000E+00 8.68100E-05 4.58896E-05 9.00347E-06-4.75943E-06 8.68100E+04 4.58896E+04 4.34050E-14
   104    70 1.00000E-09 0.00000E+00-3.64974E-06-2.72221E-05-4.83815E-06 3.60861E-05-3.64974E+03-2.72221E+04-1.82487E-15
   201    90 1.00000E-09 0.00000E+00-2.79555E-05 2.52260E-05-1.97167E-05-1.77916E-05-2.79555E+04 2.52260E+04-1.39777E-14
   202   110 1.00000E+00 0.00000E+00 2.96616E-03-1.36870E-03 2.77953E+02 1.28258E+02 2.96616E-03-1.36870E-03 1.48308E-03
   203   130 1.00000E-09 0.00000E+00-2.69711E-05 2.38950E-05-2.07724E-05-1.84033E-05-2.69711E+04 2.38950E+04-1.34855E-14
   204   150 1.00000E-09 0.00000E+00 2.94273E-05 7.40132E-06 3.19603E-05-8.03838E-06 2.94273E+04 7.40132E+03 1.47137E-14
   301   170 1.00000E-09 0.00000E+00 8.62473E-05 4.30166E-05 9.28486E-06-4.63091E-06 8.62473E+04 4.30166E+04 4.31236E-14
   302   190 1.00000E-09 0.00000E+00-2.73151E-05 2.26965E-05-2.16573E-05-1.79953E-05-2.73151E+04 2.26965E+04-1.36576E-14
   303   210 1.00000E-09 0.00000E+00 8.68100E-05 4.58896E-05 9.00347E-06-4.75943E-06 8.68100E+04 4.58896E+04 4.34050E-14
   304   230 1.00000E-09 0.00000E+00-3.64974E-06-2.72221E-05-4.83815E-06 3.60861E-05-3.64974E+03-2.72221E+04-1.82487E-15



                             - - - CURRENTS AND LOCATION - - -

                                 DISTANCES IN WAVELENGTHS


  SEG.  TAG    COORD. OF SEG. CENTER     SEG.            - - - CURRENT (AMPS) - - -
  NO.   NO.     X        Y        Z      LENGTH     REAL        IMAG.       MAG.        PHASE
     1  101  -3.7525  -2.5017  -2.3766  0.25017   1.0373E-04  6.3652E-05  1.2171E-04   31.534
     2  101  -3.7525  -2.5017  -2.1264  0.25017   1.1522E-04  6.4884E-05  1.3223E-04   29.386
     3  101  -3.7525  -2.5017  -1.8763  0.25017  -8.2345E-05 -4.9617E-05  9.6138E-05 -148.929
     4  101  -3.7525  -2.5017  -1.6261  0.25017  -1.1364E-04 -7.0637E-05  1.3381E-04 -148.136
     5  101  -3.7525  -2.5017  -1.3759  0.25017   6.5763E-05  1.2510E-05  6.6943E-05   10.771
     6  101  -3.7525  -2.5017  -1.1258  0.25017   9.5022E-05  1.8813E-05  9.6867E-05   11.199
     7  101  -3.7525  -2.5017  -0.8756  0.25017  -8.1209E-05 -5.5456E-05  9.8337E-05 -145.671
     8  101  -3.7525  -2.5017  -0.6254  0.25017  -1.1697E-04 -4.0189E-05  1.2368E-04 -161.038
     9  101  -3.7525  -2.5017  -0.3753  0.25017   4.7574E-05  5.3297E-05  7.1441E-05   48.247
    10  101  -3.7525  -2.5017  -0.1251  0.25017   8.6247E-05  4.3017E-05  9.6380E-05   26.508
    11  101  -3.7525  -2.5017   0.1251  0.25017  -5.2127E-05 -6.3523E-05  8.2173E-05 -129.372
    12  101  -3.7525  -2.5017   0.3753  0.25017  -5.8884E-05 -7.4979E-05  9.5337E-05 -128.144
    13  101  -3.7525  -2.5017   0.6254  0.25017   8.9607E-05  1.9086E-05  9.1617E-05   12.024
    14  101  -3.7525  -2.5017   0.8756  0.25017   7.6657E-05  3.9171E-05  8.6085E-05   27.067
    15  101  -3.7525  -2.5017   1.1258  0.25017  -1.0142E-04 -2.8632E-05  1.0538E-04 -164.235
    16  101  -3.7525  -2.5017   1.3759  0.25017  -1.0290E-04 -1.9124E-05  1.0467E-04 -169.472
    17  101  -3.7525  -2.5017   1.6261  0.25017   7.9002E-05  6.6380E-05  1.0319E-04   40.038
    18  101  -3.7525  -2.5017   1.8763  0.25017   8.5595E-05  5.4770E-05  1.0162E-04   32.614
    19  101  -3.7525  -2.5017   2.1264  0.25017  -9.9715E-05 -4.7390E-05  1.1040E-04 -154.580
    20  101  -3.7525  -2.5017   2.3766  0.25017  -1.0392E-04 -5.0747E-05  1.1565E-04 -153.973
    21  102  -1.2508  -2.5017  -2.3766  0.25017  -3.8607E-05  2.2687E-05  4.4779E-05  149.560
    22  102  -1.2508  -2.5017  -2.1264  0.25017   1.0520E-06 -1.2918E-07  1.0599E-06   -7.001
    23  102  -1.2508  -2.5017  -1.8763  0.25017   9.4661E-05 -4.2466E-05  1.0375E-04  -24.162
    24  102  -1.2508  -2.5017  -1.6261  0.25017   4.6103E-05 -7.9194E-06  4.6778E-05   -9.747
    25  102  -1.2508  -2.5017  -1.3759  0.25017  -8.6426E-05  3.0792E-05  9.1747E-05  160.390
    26  102  -1.2508  -2.5017  -1.1258  0.25017  -8.7081E-05 -2.7017E-05  9.1176E-05 -162.763
    27  102  -1.2508  -2.5017  -0.8756  0.25017   2.4799E-05 -8.5691E-05  8.9208E-05  -73.860
    28  102  -1.2508  -2.5017  -0.6254  0.25017   4.5317E-05 -1.7840E-05  4.8702E-05  -21.488
    29  102  -1.2508  -2.5017  -0.3753  0.25017  -3.0205E-05  7.3374E-05  7.9348E-05  112.375
    30  102  -1.2508  -2.5017  -0.1251  0.25017  -2.7315E-05  2.2696E-05  3.5514E-05  140.276
    31  102  -1.2508  -2.5017   0.1251  0.25017   4.8788E-05 -8.8938E-05  1.0144E-04  -61.253
    32  102  -1.2508  -2.5017   0.3753  0.25017   3.2769E-05 -7.3558E-05  8.0526E-05  -65.988
    33  102  -1.2508  -2.5017   0.6254  0.25017  -5.3058E-05  2.9421E-05  6.0669E-05  150.991
    34  102  -1.2508  -2.5017   0.8756  0.25017  -3.1584E-05  4.3572E-05  5.3815E-05  125.937
    35  102  -1.2508  -2.5017   1.1258  0.25017   6.6747E-05 -2.0165E-05  6.9727E-05  -16.810
    36  102  -1.2508  -2.5017   1.3759  0.25017   4.0698E-05 -1.5271E-05  4.3469E-05  -20.567
    37  102  -1.2508  -2.5017   1.6261  0.25017  -8.7475E-05  4.9257E-05  1.0039E-04  150.616
    38  102  -1.2508  -2.5017   1.8763  0.25017  -8.9146E-05  4.5488E-05  1.0008E-04  152.967
    39  102  -1.2508  -2.5017   2.1264  0.25017   4.3123E-05 -1.6800E-05  4.6280E-05  -21.286
    40  102  -1.2508  -2.5017   2.3766  0.25017   6.4702E-05 -2.2954E-05  6.8653E-05  -19.533
    41  103   1.2508  -2.5017  -2.3766  0.25017   1.0465E-04  6.6620E-05  1.2405E-04   32.481
    42  103   1.2508  -2.5017  -2.1264  0.25017   1.1603E-04  6.8319E-05  1.3465E-04   30.490
    43  103   1.2508  -2.5017  -1.8763  0.25017  -8.3863E-05 -5.1566E-05  9.8448E-05 -148.413
    44  103   1.2508  -2.5017  -1.6261  0.25017  -1.1566E-04 -7.3618E-05  1.3710E-04 -147.524
    45  103   1.2508  -2.5017  -1.3759  0.25017   6.5466E-05  1.4164E-05  6.6981E-05   12.208
    46  103   1.2508  -2.5017  -1.1258  0.25017   9.4649E-05  2.1091E-05  9.6970E-05   12.562
    47  103   1.2508  -2.5017  -0.8756  0.25017  -8.3641E-05 -5.7953E-05  1.0176E-04 -145.283
    48  103   1.2508  -2.5017  -0.6254  0.25017  -1.1926E-04 -4.3319E-05  1.2688E-04 -160.037
    49  103   1.2508  -2.5017  -0.3753  0.25017   4.7734E-05  5.5128E-05  7.2922E-05   49.111
    50  103   1.2508  -2.5017  -0.1251  0.25017   8.6810E-05  4.5890E-05  9.8193E-05   27.862
    51  103   1.2508  -2.5017   0.1251  0.25017  -5.3368E-05 -6.5109E-05  8.4186E-05 -129.340
    52  103   1.2508  -2.5017   0.3753  0.25017  -5.9802E-05 -7.7124E-05  9.7593E-05 -127.790
    53  103   1.2508  -2.5017   0.6254  0.25017   9.1211E-05  2.1848E-05  9.3791E-05   13.470
    54  103   1.2508  -2.5017   0.8756  0.25017   7.8511E-05  4.2851E-05  8.9444E-05   28.625
    55  103   1.2508  -2.5017   1.1258  0.25017  -1.0176E-04 -2.9663E-05  1.0600E-04 -163.749
    56  103   1.2508  -2.5017   1.3759  0.25017  -1.0353E-04 -2.0987E-05  1.0563E-04 -168.540
    57  103   1.2508  -2.5017   1.6261  0.25017   8.0191E-05  6.9271E-05  1.0597E-04   40.821
    58  103   1.2508  -2.5017   1.8763  0.25017   8.6476E-05  5.8338E-05  1.0431E-04   34.004
    59  103   1.2508  -2.5017   2.1264  0.25017  -1.0115E-04 -4.9036E-05  1.1241E-04 -154.136
    60  103   1.2508  -2.5017   2.3766  0.25017  -1.0522E-04 -5.3391E-05  1.1799E-04 -153.096
    61  104   3.7525  -2.5017  -2.3766  0.25017  -2.2637E-06 -3.1863E-05  3.1944E-05  -94.064
    62  104   3.7525  -2.5017  -2.1264  0.25017   4.8912E-06 -3.6195E-05  3.6524E-05  -82.304
    63  104   3.7525  -2.5017  -1.8763  0.25017   1.3154E-05  1.4432E-05  1.9527E-05   47.654
    64  104   3.7525  -2.5017  -1.6261  0.25017   7.6123E-06  1.8084E-05  1.9620E-05   67.171
    65  104   3.7525  -2.5017  -1.3759  0.25017  -5.8417E-06 -2.7524E-05  2.8137E-05 -101.983
    66  104   3.7525  -2.5017  -1.1258  0.25017  -1.4423E-05 -3.0784E-05  3.3995E-05 -115.104
    67  104   3.7525  -2.5017  -0.8756  0.25017  -1.8304E-05  8.1356E-06  2.0031E-05  156.037
    68  104   3.7525  -2.5017  -0.6254  0.25017  -2.1350E-05  3.3145E-06  2.1606E-05  171.176
    69  104   3.7525  -2.5017  -0.3753  0.25017  -1.7577E-05 -3.8011E-05  4.1878E-05 -114.817
    70  104   3.7525  -2.5017  -0.1251  0.25017  -3.6497E-06 -2.7222E-05  2.7466E-05  -97.636
    71  104   3.7525  -2.5017   0.1251  0.25017   9.5761E-06  2.5789E-05  2.7510E-05   69.629
    72  104   3.7525  -2.5017   0.3753  0.25017   1.3247E-05  2.6852E-05  2.9942E-05   63.742
    73  104   3.7525  -2.5017   0.6254  0.25017   1.3012E-05 -1.9190E-05  2.3186E-05  -55.861
    74  104   3.7525  -2.5017   0.8756  0.25017   1.2292E-05 -2.0203E-05  2.3648E-05  -58.683
    75  104   3.7525  -2.5017   1.1258  0.25017   2.0371E-06  2.0932E-05  2.1031E-05   84.442
    76  104   3.7525  -2.5017   1.3759  0.25017  -1.8220E-05  1.7728E-05  2.5422E-05  135.784
    77  104   3.7525  -2.5017   1.6261  0.25017  -2.9548E-05 -2.0067E-05  3.5718E-05 -145.818
    78  104   3.7525  -2.5017   1.8763  0.25017  -2.0314E-05 -3.6639E-06  2.0642E-05 -169.776
    79  104   3.7525  -2.5017   2.1264  0.25017  -4.5683E-06  4.9582E-05  4.9792E-05   95.264
    80  104   3.7525  -2.5017   2.3766  0.25017   8.7770E-07  3.6236E-05  3.6246E-05   88.612
    81  201  -3.7525   0.0000  -2.3766  0.25017  -3.9307E-05  2.5482E-05  4.6844E-05  147.046
    82  201  -3.7525   0.0000  -2.1264  0.25017  -1.8390E-08  3.3915E-06  3.3916E-06   90.311
    83  201  -3.7525   0.0000  -1.8763  0.25017   9.4023E-05 -4.3839E-05  1.0374E-04  -24.998
    84  201  -3.7525   0.0000  -1.6261  0.25017   4.5250E-05 -1.0485E-05  4.6449E-05  -13.046
    85  201  -3.7525   0.0000  -1.3759  0.25017  -8.7953E-05  3.2296E-05  9.3695E-05  159.837
    86  201  -3.7525   0.0000  -1.1258  0.25017  -8.8360E-05 -2.4910E-05  9.1804E-05 -164.256
    87  201  -3.7525   0.0000  -0.8756  0.25017   2.4506E-05 -8.7836E-05  9.1191E-05  -74.411
    88  201  -3.7525   0.0000  -0.6254  0.25017   4.5237E-05 -2.0497E-05  4.9665E-05  -24.375
    89  201  -3.7525   0.0000  -0.3753  0.25017  -3.0886E-05  7.5161E-05  8.1260E-05  112.340
    90  201  -3.7525   0.0000  -0.1251  0.25017  -2.7955E-05  2.5226E-05  3.7654E-05  137.938
    91  201  -3.7525   0.0000   0.1251  0.25017   4.8999E-05 -9.0594E-05  1.0300E-04  -61.592
    92  201  -3.7525   0.0000   0.3753  0.25017   3.3238E-05 -7.5687E-05  8.2664E-05  -66.292
    93  201  -3.7525   0.0000   0.6254  0.25017  -5.3159E-05  3.1716E-05  6.1902E-05  149.179
    94  201  -3.7525   0.0000   0.8756  0.25017  -3.1658E-05  4.6523E-05  5.6273E-05  124.235
    95  201  -3.7525   0.0000   1.1258  0.25017   6.7645E-05 -2.1519E-05  7.0985E-05  -17.647
    96  201  -3.7525   0.0000   1.3759  0.25017   4.2035E-05 -1.7261E-05  4.5441E-05  -22.325
    97  201  -3.7525   0.0000   1.6261  0.25017  -8.6837E-05  5.1379E-05  1.0090E-04  149.388
    98  201  -3.7525   0.0000   1.8763  0.25017  -8.9050E-05  4.7752E-05  1.0105E-04  151.798
    99  201  -3.7525   0.0000   2.1264  0.25017   4.3520E-05 -1.9250E-05  4.7588E-05  -23.861
   100  201  -3.7525   0.0000   2.3766  0.25017   6.5101E-05 -2.5654E-05  6.9974E-05  -21.508
   101  202  -1.2508   0.0000  -2.3766  0.25017   2.8115E-03 -1.8094E-03  3.3434E-03  -32.764
   102  202  -1.2508   0.0000  -2.1264  0.25017   2.6794E-03 -1.2229E-03  2.9452E-03  -24.532
   103  202  -1.2508   0.0000  -1.8763  0.25017  -2.6892E-03  2.0156E-03  3.3608E-03  143.148
   104  202  -1.2508   0.0000  -1.6261  0.25017  -2.6618E-03  1.1092E-03  2.8836E-03  157.378
   105  202  -1.2508   0.0000  -1.3759  0.25017   2.6414E-03 -2.0925E-03  3.3698E-03  -38.387
   106  202  -1.2508   0.0000  -1.1258  0.25017   2.6741E-03 -1.0472E-03  2.8719E-03  -21.386
   107  202  -1.2508   0.0000  -0.8756  0.25017  -2.6329E-03  2.1432E-03  3.3949E-03  140.854
   108  202  -1.2508   0.0000  -0.6254  0.25017  -2.7327E-03  9.5837E-04  2.8959E-03  160.674
   109  202  -1.2508   0.0000  -0.3753  0.25017   2.6448E-03 -2.2534E-03  3.4746E-03  -40.432
   110  202  -1.2508   0.0000  -0.1251  0.25017   2.9662E-03 -1.3687E-03  3.2667E-03  -24.770
   111  202  -1.2508   0.0000   0.1251  0.25017  -2.2830E-03 -1.1443E-04  2.2859E-03 -177.130
   112  202  -1.2508   0.0000   0.3753  0.25017  -2.7087E-03  8.9867E-04  2.8539E-03  161.646
   113  202  -1.2508   0.0000   0.6254  0.25017   2.3514E-03  3.3443E-05  2.3516E-03    0.815
   114  202  -1.2508   0.0000   0.8756  0.25017   2.6858E-03 -8.7328E-04  2.8242E-03  -18.012
   115  202  -1.2508   0.0000   1.1258  0.25017  -2.3712E-03  3.6749E-05  2.3715E-03  179.112
   116  202  -1.2508   0.0000   1.3759  0.25017  -2.6875E-03  8.4213E-04  2.8164E-03  162.602
   117  202  -1.2508   0.0000   1.6261  0.25017   2.3826E-03 -9.6341E-05  2.3845E-03   -2.316
   118  202  -1.2508   0.0000   1.8763  0.25017   2.6867E-03 -7.7973E-04  2.7975E-03  -16.184
   119  202  -1.2508   0.0000   2.1264  0.25017  -2.4515E-03  1.8894E-04  2.4588E-03  175.593
   120  202  -1.2508   0.0000   2.3766  0.25017  -2.7288E-03  6.0136E-04  2.7942E-03  167.572
   121  203   1.2508   0.0000  -2.3766  0.25017  -3.6913E-05  2.3027E-05  4.3506E-05  148.044
   122  203   1.2508   0.0000  -2.1264  0.25017   2.0654E-06  7.2298E-07  2.1883E-06   19.292
   123  203   1.2508   0.0000  -1.8763  0.25017   9.1421E-05 -4.2602E-05  1.0086E-04  -24.985
   124  203   1.2508   0.0000  -1.6261  0.25017   4.2390E-05 -9.5745E-06  4.3458E-05  -12.728
   125  203   1.2508   0.0000  -1.3759  0.25017  -8.7054E-05  2.8736E-05  9.1674E-05  161.732
   126  203   1.2508   0.0000  -1.1258  0.25017  -8.7744E-05 -2.9010E-05  9.2415E-05 -161.705
   127  203   1.2508   0.0000  -0.8756  0.25017   2.1485E-05 -8.7988E-05  9.0573E-05  -76.278
   128  203   1.2508   0.0000  -0.6254  0.25017   4.2938E-05 -1.9496E-05  4.7157E-05  -24.420
   129  203   1.2508   0.0000  -0.3753  0.25017  -2.9244E-05  7.3739E-05  7.9326E-05  111.633
   130  203   1.2508   0.0000  -0.1251  0.25017  -2.6971E-05  2.3895E-05  3.6033E-05  138.461
   131  203   1.2508   0.0000   0.1251  0.25017   4.6043E-05 -8.9342E-05  1.0051E-04  -62.735
   132  203   1.2508   0.0000   0.3753  0.25017   3.1035E-05 -7.4920E-05  8.1094E-05  -67.499
   133  203   1.2508   0.0000   0.6254  0.25017  -5.1214E-05  3.0167E-05  5.9439E-05  149.500
   134  203   1.2508   0.0000   0.8756  0.25017  -3.0159E-05  4.6809E-05  5.5684E-05  122.794
   135  203   1.2508   0.0000   1.1258  0.25017   6.5409E-05 -1.7345E-05  6.7670E-05  -14.852
   136  203   1.2508   0.0000   1.3759  0.25017   4.0616E-05 -1.4233E-05  4.3037E-05  -19.312
   137  203   1.2508   0.0000   1.6261  0.25017  -8.4562E-05  5.0169E-05  9.8324E-05  149.320
   138  203   1.2508   0.0000   1.8763  0.25017  -8.8257E-05  4.7043E-05  1.0001E-04  151.941
   139  203   1.2508   0.0000   2.1264  0.25017   3.9700E-05 -1.6089E-05  4.2837E-05  -22.061
   140  203   1.2508   0.0000   2.3766  0.25017   6.2358E-05 -2.3282E-05  6.6562E-05  -20.473
   141  204   3.7525   0.0000  -2.3766  0.25017   4.0903E-05  8.0270E-06  4.1683E-05   11.103
   142  204   3.7525   0.0000  -2.1264  0.25017   3.4568E-05  1.4366E-05  3.7434E-05   22.567
   143  204   3.7525   0.0000  -1.8763  0.25017  -4.6394E-05  1.1011E-05  4.7683E-05  166.649
   144  204   3.7525   0.0000  -1.6261  0.25017  -4.9954E-05  7.2363E-06  5.0476E-05  171.758
   145  204   3.7525   0.0000  -1.3759  0.25017   2.4145E-05  6.3602E-06  2.4969E-05   14.757
   146  204   3.7525   0.0000  -1.1258  0.25017   3.3114E-05  6.8185E-06  3.3809E-05   11.635
   147  204   3.7525   0.0000  -0.8756  0.25017  -2.8675E-05  8.8200E-06  3.0001E-05  162.903
   148  204   3.7525   0.0000  -0.6254  0.25017  -2.8396E-05  1.2482E-05  3.1019E-05  156.272
   149  204   3.7525   0.0000  -0.3753  0.25017   3.4752E-05  1.3523E-05  3.7290E-05   21.262
   150  204   3.7525   0.0000  -0.1251  0.25017   2.9427E-05  7.4013E-06  3.0344E-05   14.118
   151  204   3.7525   0.0000   0.1251  0.25017  -4.1501E-05 -2.5712E-06  4.1581E-05 -176.455
   152  204   3.7525   0.0000   0.3753  0.25017  -4.3596E-05 -6.6672E-06  4.4103E-05 -171.305
   153  204   3.7525   0.0000   0.6254  0.25017   2.2973E-05 -6.4135E-07  2.2982E-05   -1.599
   154  204   3.7525   0.0000   0.8756  0.25017   2.6985E-05  8.1020E-06  2.8175E-05   16.712
   155  204   3.7525   0.0000   1.1258  0.25017  -2.8592E-05  1.0077E-05  3.0316E-05  160.584
   156  204   3.7525   0.0000   1.3759  0.25017  -1.3766E-05  5.0103E-06  1.4649E-05  160.000
   157  204   3.7525   0.0000   1.6261  0.25017   6.0043E-05 -1.8538E-06  6.0072E-05   -1.768
   158  204   3.7525   0.0000   1.8763  0.25017   5.0825E-05 -8.6914E-06  5.1562E-05   -9.704
   159  204   3.7525   0.0000   2.1264  0.25017  -3.4200E-05 -1.3365E-05  3.6719E-05 -158.655
   160  204   3.7525   0.0000   2.3766  0.25017  -4.0711E-05 -7.9637E-06  4.1482E-05 -168.932
   161  301  -3.7525   2.5017  -2.3766  0.25017   1.0373E-04  6.3652E-05  1.2171E-04   31.534
   162  301  -3.7525   2.5017  -2.1264  0.25017   1.1522E-04  6.4884E-05  1.3223E-04   29.386
   163  301  -3.7525   2.5017  -1.8763  0.25017  -8.2345E-05 -4.9617E-05  9.6138E-05 -148.929
   164  301  -3.7525   2.5017  -1.6261  0.25017  -1.1364E-04 -7.0637E-05  1.3381E-04 -148.136
   165  301  -3.7525   2.5017  -1.3759  0.25017   6.5763E-05  1.2510E-05  6.6943E-05   10.771
   166  301  -3.7525   2.5017  -1.1258  0.25017   9.5022E-05  1.8813E-05  9.6867E-05   11.199
   167  301  -3.7525   2.5017  -0.8756  0.25017  -8.1209E-05 -5.5456E-05  9.8337E-05 -145.671
   168  301  -3.7525   2.5017  -0.6254  0.25017  -1.1697E-04 -4.0189E-05  1.2368E-04 -161.038
   169  301  -3.7525   2.5017  -0.3753  0.25017   4.7574E-05  5.3297E-05  7.1441E-05   48.247
   170  301  -3.7525   2.5017  -0.1251  0.25017   8.6247E-05  4.3017E-05  9.6380E-05   26.508
   171  301  -3.7525   2.5017   0.1251  0.25017  -5.2127E-05 -6.3523E-05  8.2173E-05 -129.372
   172  301  -3.7525   2.5017   0.3753  0.25017  -5.8884E-05 -7.4979E-05  9.5337E-05 -128.144
   173  301  -3.7525   2.5017   0.6254  0.25017   8.9607E-05  1.9086E-05  9.1617E-05   12.024
   174  301  -3.7525   2.5017   0.8756  0.25017   7.6657E-05  3.9171E-05  8.6085E-05   27.067
   175  301  -3.7525   2.5017   1.1258  0.25017  -1.0142E-04 -2.8632E-05  1.0538E-04 -164.235
   176  301  -3.7525   2.5017   1.3759  0.25017  -1.0290E-04 -1.9124E-05  1.0467E-04 -169.472
   177  301  -3.7525   2.5017   1.6261  0.25017   7.9002E-05  6.6380E-05  1.0319E-04   40.038
   178  301  -3.7525   2.5017   1.8763  0.25017   8.5595E-05  5.4770E-05  1.0162E-04   32.614
   179  301  -3.7525   2.5017   2.1264  0.25017  -9.9715E-05 -4.7390E-05  1.1040E-04 -154.580
   180  301  -3.7525   2.5017   2.3766  0.25017  -1.0392E-04 -5.0747E-05  1.1565E-04 -153.973
   181  302  -1.2508   2.5017  -2.3766  0.25017  -3.8607E-05  2.2687E-05  4.4779E-05  149.560
   182  302  -1.2508   2.5017  -2.1264  0.25017   1.0520E-06 -1.2918E-07  1.0599E-06   -7.001
   183  302  -1.2508   2.5017  -1.8763  0.25017   9.4661E-05 -4.2466E-05  1.0375E-04  -24.162
   184  302  -1.2508   2.5017  -1.6261  0.25017   4.6103E-05 -7.9194E-06  4.6778E-05   -9.747
   185  302  -1.2508   2.5017  -1.3759  0.25017  -8.6426E-05  3.0792E-05  9.1747E-05  160.390
   186  302  -1.2508   2.5017  -1.1258  0.25017  -8.7081E-05 -2.7017E-05  9.1176E-05 -162.763
   187  302  -1.2508   2.5017  -0.8756  0.25017   2.4799E-05 -8.5691E-05  8.9208E-05  -73.860
   188  302  -1.2508   2.5017  -0.6254  0.25017   4.5317E-05 -1.7840E-05  4.8702E-05  -21.488
   189  302  -1.2508   2.5017  -0.3753  0.25017  -3.0205E-05  7.3374E-05  7.9348E-05  112.375
   190  302  -1.2508   2.5017  -0.1251  0.25017  -2.7315E-05  2.2696E-05  3.5514E-05  140.276
   191  302  -1.2508   2.5017   0.1251  0.25017   4.8788E-05 -8.8938E-05  1.0144E-04  -61.253
   192  302  -1.2508   2.5017   0.3753  0.25017   3.2769E-05 -7.3558E-05  8.0526E-05  -65.988
   193  302  -1.2508   2.5017   0.6254  0.25017  -5.3058E-05  2.9421E-05  6.0669E-05  150.991
   194  302  -1.2508   2.5017   0.8756  0.25017  -3.1584E-05  4.3572E-05  5.3815E-05  125.937
   195  302  -1.2508   2.5017   1.1258  0.25017   6.6747E-05 -2.0165E-05  6.9727E-05  -16.810
   196  302  -1.2508   2.5017   1.3759  0.25017   4.0698E-05 -1.5271E-05  4.3469E-05  -20.567
   197  302  -1.2508   2.5017   1.6261  0.25017  -8.7475E-05  4.9257E-05  1.0039E-04  150.616
   198  302  -1.2508   2.5017   1.8763  0.25017  -8.9146E-05  4.5488E-05  1.0008E-04  152.967
   199  302  -1.2508   2.5017   2.1264  0.25017   4.3123E-05 -1.6800E-05  4.6280E-05  -21.286
   200  302  -1.2508   2.5017   2.3766  0.25017   6.4702E-05 -2.2954E-05  6.8653E-05  -19.533
   201  303   1.2508   2.5017  -2.3766  0.25017   1.0465E-04  6.6620E-05  1.2405E-04   32.481
   202  303   1.2508   2.5017  -2.1264  0.25017   1.1603E-04  6.8319E-05  1.3465E-04   30.490
   203  303   1.2508   2.5017  -1.8763  0.25017  -8.3863E-05 -5.1566E-05  9.8448E-05 -148.413
   204  303   1.2508   2.5017  -1.6261  0.25017  -1.1566E-04 -7.3618E-05  1.3710E-04 -147.524
   205  303   1.2508   2.5017  -1.3759  0.25017   6.5466E-05  1.4164E-05  6.6981E-05   12.208
   206  303   1.2508   2.5017  -1.1258  0.25017   9.4649E-05  2.1091E-05  9.6970E-05   12.562
   207  303   1.2508   2.5017  -0.8756  0.25017  -8.3641E-05 -5.7953E-05  1.0176E-04 -145.283
   208  303   1.2508   2.5017  -0.6254  0.25017  -1.1926E-04 -4.3319E-05  1.2688E-04 -160.037
   209  303   1.2508   2.5017  -0.3753  0.25017   4.7734E-05  5.5128E-05  7.2922E-05   49.111
   210  303   1.2508   2.5017  -0.1251  0.25017   8.6810E-05  4.5890E-05  9.8193E-05   27.862
   211  303   1.2508   2.5017   0.1251  0.25017  -5.3368E-05 -6.5109E-05  8.4186E-05 -129.340
   212  303   1.2508   2.5017   0.3753  0.25017  -5.9802E-05 -7.7124E-05  9.7593E-05 -127.790
   213  303   1.2508   2.5017   0.6254  0.25017   9.1211E-05  2.1848E-05  9.3791E-05   13.470
   214  303   1.2508   2.5017   0.8756  0.25017   7.8511E-05  4.2851E-05  8.9444E-05   28.625
   215  303   1.2508   2.5017   1.1258  0.25017  -1.0176E-04 -2.9663E-05  1.0600E-04 -163.749
   216  303   1.2508   2.5017   1.3759  0.25017  -1.0353E-04 -2.0987E-05  1.0563E-04 -168.540
   217  303   1.2508   2.5017   1.6261  0.25017   8.0191E-05  6.9271E-05  1.0597E-04   40.821
   218  303   1.2508   2.5017   1.8763  0.25017   8.6476E-05  5.8338E-05  1.0431E-04   34.004
   219  303   1.2508   2.5017   2.1264  0.25017  -1.0115E-04 -4.9036E-05  1.1241E-04 -154.136
   220  303   1.2508   2.5017   2.3766  0.25017  -1.0522E-04 -5.3391E-05  1.1799E-04 -153.096
   221  304   3.7525   2.5017  -2.3766  0.25017  -2.2637E-06 -3.1863E-05  3.1944E-05  -94.064
   222  304   3.7525   2.5017  -2.1264  0.25017   4.8912E-06 -3.6195E-05  3.6524E-05  -82.304
   223  304   3.7525   2.5017  -1.8763  0.25017   1.3154E-05  1.4432E-05  1.9527E-05   47.654
   224  304   3.7525   2.5017  -1.6261  0.25017   7.6123E-06  1.8084E-05  1.9620E-05   67.171
   225  304   3.7525   2.5017  -1.3759  0.25017  -5.8417E-06 -2.7524E-05  2.8137E-05 -101.983
   226  304   3.7525   2.5017  -1.1258  0.25017  -1.4423E-05 -3.0784E-05  3.3995E-05 -115.104
   227  304   3.7525   2.5017  -0.8756  0.25017  -1.8304E-05  8.1356E-06  2.0031E-05  156.037
   228  304   3.7525   2.5017  -0.6254  0.25017  -2.1350E-05  3.3145E-06  2.1606E-05  171.176
   229  304   3.7525   2.5017  -0.3753  0.25017  -1.7577E-05 -3.8011E-05  4.1878E-05 -114.817
   230  304   3.7525   2.5017  -0.1251  0.25017  -3.6497E-06 -2.7222E-05  2.7466E-05  -97.636
   231  304   3.7525   2.5017   0.1251  0.25017   9.5761E-06  2.5789E-05  2.7510E-05   69.629
   232  304   3.7525   2.5017   0.3753  0.25017   1.3247E-05  2.6852E-05  2.9942E-05   63.742
   233  304   3.7525   2.5017   0.6254  0.25017   1.3012E-05 -1.9190E-05  2.3186E-05  -55.861
   234  304   3.7525   2.5017   0.8756  0.25017   1.2292E-05 -2.0203E-05  2.3648E-05  -58.683
   235  304   3.7525   2.5017   1.1258  0.25017   2.0371E-06  2.0932E-05  2.1031E-05   84.442
   236  304   3.7525   2.5017   1.3759  0.25017  -1.8220E-05  1.7728E-05  2.5422E-05  135.784
   237  304   3.7525   2.5017   1.6261  0.25017  -2.9548E-05 -2.0067E-05  3.5718E-05 -145.818
   238  304   3.7525   2.5017   1.8763  0.25017  -2.0314E-05 -3.6639E-06  2.0642E-05 -169.776
   239  304   3.7525   2.5017   2.1264  0.25017  -4.5683E-06  4.9582E-05  4.9792E-05   95.264
   240  304   3.7525   2.5017   2.3766  0.25017   8.7770E-07  3.6236E-05  3.6246E-05   88.612



                                        - - - POWER BUDGET - - -

                                           INPUT POWER   = 1.4831E-03 WATTS
                                           RADIATED POWER= 1.4831E-03 WATTS
                                           STRUCTURE LOSS= 0.0000E+00 WATTS
                                           NETWORK LOSS  = 0.0000E+00 WATTS
                                           EFFICIENCY    = 100.00 PERCENT



                                                - - - RADIATION PATTERNS - - -

  - - ANGLES - -       - DIRECTIVE GAINS -       - - - POLARIZATION - - -    - - - E(THETA) - - -    - - - E(PHI) - - -
  THETA     PHI        VERT.   HOR.    TOTAL      AXIAL     TILT   SENSE     MAGNITUDE    PHASE      MAGNITUDE    PHASE 
 DEGREES  DEGREES       DB      DB      DB        RATIO     DEG.              VOLTS/M    DEGREES      VOLTS/M    DEGREES
    0.00     0.00    -999.99 -999.99 -999.99    0.00000     0.00            0.00000E+00     0.00    0.00000E+00     0.00
    5.00     0.00      -5.65 -999.99   -5.65    0.00000     0.00  LINEAR    1.55631E-01   -54.95    0.00000E+00     0.00
   10.00     0.00       0.14 -999.99    0.14    0.00000     0.00  LINEAR    3.02910E-01  -105.20    0.00000E+00     0.00
   15.00     0.00       3.86 -999.99    3.86    0.00000     0.00  LINEAR    4.65055E-01  -138.81    0.00000E+00     0.00
   20.00     0.00       6.32 -999.99    6.32    0.00000     0.00  LINEAR    6.17247E-01  -168.68    0.00000E+00     0.00
   25.00     0.00       7.29 -999.99    7.29    0.00000     0.00  LINEAR    6.90012E-01   157.42    0.00000E+00     0.00
   30.00     0.00       5.51 -999.99    5.51    0.00000     0.00  LINEAR    5.62461E-01   116.90    0.00000E+00     0.00
   35.00     0.00       1.01 -999.99    1.01    0.00000     0.00  LINEAR    3.35037E-01    80.39    0.00000E+00     0.00
   40.00     0.00     -20.10 -999.99  -20.10    0.00000     0.00  LINEAR    2.94824E-02    84.29    0.00000E+00     0.00
   45.00     0.00      -3.90 -999.99   -3.90    0.00000     0.00  LINEAR    1.90223E-01  -156.11    0.00000E+00     0.00
   50.00     0.00      -6.87 -999.99   -6.87    0.00000     0.00  LINEAR    1.35272E-01   174.61    0.00000E+00     0.00
   55.00     0.00      -4.85 -999.99   -4.85    0.00000     0.00  LINEAR    1.70705E-01    -5.51    0.00000E+00     0.00
   60.00     0.00       1.49 -999.99    1.49    0.00000     0.00  LINEAR    3.53968E-01   -34.74    0.00000E+00     0.00
   65.00     0.00      -2.61 -999.99   -2.61    0.00000     0.00  LINEAR    2.20930E-01   -53.21    0.00000E+00     0.00
   70.00     0.00     -11.35 -999.99  -11.35    0.00000     0.00  LINEAR    8.07155E-02    57.09    0.00000E+00     0.00
   75.00     0.00      -6.60 -999.99   -6.60    0.00000     0.00  LINEAR    1.39454E-01    67.39    0.00000E+00     0.00
   80.00     0.00      -9.19 -999.99   -9.19    0.00000     0.00  LINEAR    1.03497E-01   -95.96    0.00000E+00     0.00
   85.00     0.00      -0.66 -999.99   -0.66    0.00000     0.00  LINEAR    2.76230E-01  -102.91    0.00000E+00     0.00
   90.00     0.00      -7.87 -999.99   -7.87    0.00000     0.00  LINEAR    1.20455E-01   -73.94    0.00000E+00     0.00
    0.00     5.00    -999.99 -999.99 -999.99    0.00000     0.00            0.00000E+00     0.00    0.00000E+00     0.00
    5.00     5.00      -5.64 -999.99   -5.64    0.00000     0.00  LINEAR    1.55725E-01   -54.78    0.00000E+00     0.00
   10.00     5.00       0.16 -999.99    0.16    0.00000     0.00  LINEAR    3.03889E-01  -104.67    0.00000E+00     0.00
   15.00     5.00       3.90 -999.99    3.90    0.00000     0.00  LINEAR    4.67188E-01  -138.30    0.00000E+00     0.00
   20.00     5.00       6.30 -999.99    6.30    0.00000     0.00  LINEAR    6.16119E-01  -168.71    0.00000E+00     0.00
   25.00     5.00       7.23 -999.99    7.23    0.00000     0.00  LINEAR    6.85106E-01   157.26    0.00000E+00     0.00
   30.00     5.00       5.57 -999.99    5.57    0.00000     0.00  LINEAR    5.66452E-01   117.42    0.00000E+00     0.00
   35.00     5.00       0.96 -999.99    0.96    0.00000     0.00  LINEAR    3.33010E-01    80.79    0.00000E+00     0.00
   40.00     5.00     -29.26 -999.99  -29.26    0.00000     0.00  LINEAR    1.02659E-02    64.30    0.00000E+00     0.00
   45.00     5.00      -3.58 -999.99   -3.58    0.00000     0.00  LINEAR    1.97538E-01  -154.85    0.00000E+00     0.00
   50.00     5.00      -7.26 -999.99   -7.26    0.00000     0.00  LINEAR    1.29218E-01   175.58    0.00000E+00     0.00
   55.00     5.00      -5.24 -999.99   -5.24    0.00000     0.00  LINEAR    1.63090E-01   -11.92    0.00000E+00     0.00
   60.00     5.00       1.34 -999.99    1.34    0.00000     0.00  LINEAR    3.47801E-01   -37.85    0.00000E+00     0.00
   65.00     5.00      -2.76 -999.99   -2.76    0.00000     0.00  LINEAR    2.17069E-01   -54.82    0.00000E+00     0.00
   70.00     5.00     -10.48 -999.99  -10.48    0.00000     0.00  LINEAR    8.92516E-02    78.50    0.00000E+00     0.00
   75.00     5.00      -5.77 -999.99   -5.77    0.00000     0.00  LINEAR    1.53536E-01    77.93    0.00000E+00     0.00
   80.00     5.00      -8.09 -999.99   -8.09    0.00000     0.00  LINEAR    1.17554E-01   -86.82    0.00000E+00     0.00
   85.00     5.00       0.10 -999.99    0.10    0.00000     0.00  LINEAR    3.01664E-01   -96.08    0.00000E+00     0.00
   90.00     5.00      -8.00 -999.99   -8.00    0.00000     0.00  LINEAR    1.18755E-01   -73.35    0.00000E+00     0.00
    0.00    10.00    -999.99 -999.99 -999.99    0.00000     0.00            0.00000E+00     0.00    0.00000E+00     0.00
    5.00    10.00      -5.63 -999.99   -5.63    0.00000     0.00  LINEAR    1.55998E-01   -54.28    0.00000E+00     0.00
   10.00    10.00       0.25 -999.99    0.25    0.00000     0.00  LINEAR    3.06764E-01  -103.13    0.00000E+00     0.00
   15.00    10.00       4.02 -999.99    4.02    0.00000     0.00  LINEAR    4.73541E-01  -136.74    0.00000E+00     0.00
   20.00    10.00       6.28 -999.99    6.28    0.00000     0.00  LINEAR    6.14155E-01  -168.60    0.00000E+00     0.00
   25.00    10.00       7.07 -999.99    7.07    0.00000     0.00  LINEAR    6.72619E-01   156.97    0.00000E+00     0.00
   30.00    10.00       5.70 -999.99    5.70    0.00000     0.00  LINEAR    5.74670E-01   118.97    0.00000E+00     0.00
   35.00    10.00       0.84 -999.99    0.84    0.00000     0.00  LINEAR    3.28537E-01    82.36    0.00000E+00     0.00
   40.00    10.00     -17.08 -999.99  -17.08    0.00000     0.00  LINEAR    4.17262E-02   -74.11    0.00000E+00     0.00
   45.00    10.00      -2.63 -999.99   -2.63    0.00000     0.00  LINEAR    2.20229E-01  -149.51    0.00000E+00     0.00
   50.00    10.00      -7.93 -999.99   -7.93    0.00000     0.00  LINEAR    1.19736E-01   179.77    0.00000E+00     0.00
   55.00    10.00      -5.24 -999.99   -5.24    0.00000     0.00  LINEAR    1.63058E-01   -23.89    0.00000E+00     0.00
   60.00    10.00       1.28 -999.99    1.28    0.00000     0.00  LINEAR    3.45443E-01   -42.30    0.00000E+00     0.00
   65.00    10.00      -2.85 -999.99   -2.85    0.00000     0.00  LINEAR    2.14719E-01   -55.22    0.00000E+00     0.00
   70.00    10.00      -8.27 -999.99   -8.27    0.00000     0.00  LINEAR    1.15084E-01    99.80    0.00000E+00     0.00
   75.00    10.00      -4.46 -999.99   -4.46    0.00000     0.00  LINEAR    1.78414E-01    91.58    0.00000E+00     0.00
   80.00    10.00      -6.24 -999.99   -6.24    0.00000     0.00  LINEAR    1.45435E-01   -74.38    0.00000E+00     0.00
   85.00    10.00       1.38 -999.99    1.38    0.00000     0.00  LINEAR    3.49735E-01   -84.97    0.00000E+00     0.00
   90.00    10.00      -7.85 -999.99   -7.85    0.00000     0.00  LINEAR    1.20852E-01   -69.43    0.00000E+00     0.00
    0.00    15.00    -999.99 -999.99 -999.99    0.00000     0.00            0.00000E+00     0.00    0.00000E+00     0.00
    5.00    15.00      -5.60 -999.99   -5.60    0.00000     0.00  LINEAR    1.56421E-01   -53.45    0.00000E+00     0.00
   10.00    15.00       0.37 -999.99    0.37    0.00000     0.00  LINEAR    3.11328E-01  -100.66    0.00000E+00     0.00
   15.00    15.00       4.21 -999.99    4.21    0.00000     0.00  LINEAR    4.83948E-01  -134.01    0.00000E+00     0.00
   20.00    15.00       6.28 -999.99    6.28    0.00000     0.00  LINEAR    6.14495E-01  -167.82    0.00000E+00     0.00
   25.00    15.00       6.88 -999.99    6.88    0.00000     0.00  LINEAR    6.58436E-01   157.17    0.00000E+00     0.00
   30.00    15.00       5.77 -999.99    5.77    0.00000     0.00  LINEAR    5.79408E-01   121.61    0.00000E+00     0.00
   35.00    15.00       0.75 -999.99    0.75    0.00000     0.00  LINEAR    3.25156E-01    86.03    0.00000E+00     0.00
   40.00    15.00     -10.30 -999.99  -10.30    0.00000     0.00  LINEAR    9.11213E-02   -73.83    0.00000E+00     0.00
   45.00    15.00      -1.46 -999.99   -1.46    0.00000     0.00  LINEAR    2.52051E-01  -139.68    0.00000E+00     0.00
   50.00    15.00      -7.72 -999.99   -7.72    0.00000     0.00  LINEAR    1.22615E-01  -170.97    0.00000E+00     0.00
   55.00    15.00      -4.67 -999.99   -4.67    0.00000     0.00  LINEAR    1.74100E-01   -23.11    0.00000E+00     0.00
   60.00    15.00       1.49 -999.99    1.49    0.00000     0.00  LINEAR    3.54151E-01   -36.99    0.00000E+00     0.00
   65.00    15.00      -2.64 -999.99   -2.64    0.00000     0.00  LINEAR    2.19940E-01   -46.05    0.00000E+00     0.00
   70.00    15.00      -8.74 -999.99   -8.74    0.00000     0.00  LINEAR    1.09027E-01    99.64    0.00000E+00     0.00
   75.00    15.00      -4.93 -999.99   -4.93    0.00000     0.00  LINEAR    1.68984E-01    96.65    0.00000E+00     0.00
   80.00    15.00      -6.34 -999.99   -6.34    0.00000     0.00  LINEAR    1.43753E-01   -69.52    0.00000E+00     0.00
   85.00    15.00       1.22 -999.99    1.22    0.00000     0.00  LINEAR    3.43194E-01   -78.66    0.00000E+00     0.00
   90.00    15.00      -7.55 -999.99   -7.55    0.00000     0.00  LINEAR    1.25007E-01   -60.44    0.00000E+00     0.00
    0.00    20.00    -999.99 -999.99 -999.99    0.00000     0.00            0.00000E+00     0.00    0.00000E+00     0.00
    5.00    20.00      -5.57 -999.99   -5.57    0.00000     0.00  LINEAR    1.56951E-01   -52.32    0.00000E+00     0.00
   10.00    20.00       0.54 -999.99    0.54    0.00000     0.00  LINEAR    3.17189E-01   -97.42    0.00000E+00     0.00
   15.00    20.00       4.46 -999.99    4.46    0.00000     0.00  LINEAR    4.98059E-01  -130.06    0.00000E+00     0.00
   20.00    20.00       6.35 -999.99    6.35    0.00000     0.00  LINEAR    6.19618E-01  -165.63    0.00000E+00     0.00
   25.00    20.00       6.76 -999.99    6.76    0.00000     0.00  LINEAR    6.49368E-01   158.88    0.00000E+00     0.00
   30.00    20.00       5.72 -999.99    5.72    0.00000     0.00  LINEAR    5.76381E-01   125.89    0.00000E+00     0.00
   35.00    20.00       0.76 -999.99    0.76    0.00000     0.00  LINEAR    3.25296E-01    92.61    0.00000E+00     0.00
   40.00    20.00      -9.29 -999.99   -9.29    0.00000     0.00  LINEAR    1.02297E-01   -68.93    0.00000E+00     0.00
   45.00    20.00      -0.94 -999.99   -0.94    0.00000     0.00  LINEAR    2.67663E-01  -129.15    0.00000E+00     0.00
   50.00    20.00      -6.83 -999.99   -6.83    0.00000     0.00  LINEAR    1.35859E-01  -159.57    0.00000E+00     0.00
   55.00    20.00      -4.99 -999.99   -4.99    0.00000     0.00  LINEAR    1.67813E-01    -5.25    0.00000E+00     0.00
   60.00    20.00       1.48 -999.99    1.48    0.00000     0.00  LINEAR    3.53771E-01   -18.16    0.00000E+00     0.00
   65.00    20.00      -3.06 -999.99   -3.06    0.00000     0.00  LINEAR    2.09668E-01   -25.57    0.00000E+00     0.00
   70.00    20.00      -9.36 -999.99   -9.36    0.00000     0.00  LINEAR    1.01468E-01   104.35    0.00000E+00     0.00
   75.00    20.00      -6.62 -999.99   -6.62    0.00000     0.00  LINEAR    1.39137E-01   105.35    0.00000E+00     0.00
   80.00    20.00      -7.40 -999.99   -7.40    0.00000     0.00  LINEAR    1.27260E-01   -66.34    0.00000E+00     0.00
   85.00    20.00       0.00 -999.99    0.00    0.00000     0.00  LINEAR    2.98063E-01   -72.01    0.00000E+00     0.00
   90.00    20.00      -7.52 -999.99   -7.52    0.00000     0.00  LINEAR    1.25467E-01   -46.95    0.00000E+00     0.00
    0.00    25.00    -999.99 -999.99 -999.99    0.00000     0.00            0.00000E+00     0.00    0.00000E+00     0.00
    5.00    25.00      -5.54 -999.99   -5.54    0.00000     0.00  LINEAR    1.57536E-01   -50.90    0.00000E+00     0.00
   10.00    25.00       0.71 -999.99    0.71    0.00000     0.00  LINEAR    3.23736E-01   -93.60    0.00000E+00     0.00
   15.00    25.00       4.75 -999.99    4.75    0.00000     0.00  LINEAR    5.15194E-01  -124.93    0.00000E+00     0.00
   20.00    25.00       6.49 -999.99    6.49    0.00000     0.00  LINEAR    6.29768E-01  -161.38    0.00000E+00     0.00
   25.00    25.00       6.76 -999.99    6.76    0.00000     0.00  LINEAR    6.49219E-01   163.17    0.00000E+00     0.00
   30.00    25.00       5.61 -999.99    5.61    0.00000     0.00  LINEAR    5.68959E-01   132.84    0.00000E+00     0.00
   35.00    25.00       0.81 -999.99    0.81    0.00000     0.00  LINEAR    3.27462E-01   102.39    0.00000E+00     0.00
   40.00    25.00     -13.71 -999.99  -13.71    0.00000     0.00  LINEAR    6.15468E-02   -61.74    0.00000E+00     0.00
   45.00    25.00      -1.89 -999.99   -1.89    0.00000     0.00  LINEAR    2.39994E-01  -122.28    0.00000E+00     0.00
   50.00    25.00      -6.98 -999.99   -6.98    0.00000     0.00  LINEAR    1.33555E-01  -149.35    0.00000E+00     0.00
   55.00    25.00      -5.60 -999.99   -5.60    0.00000     0.00  LINEAR    1.56422E-01    20.40    0.00000E+00     0.00
   60.00    25.00       1.25 -999.99    1.25    0.00000     0.00  LINEAR    3.44218E-01     6.05    0.00000E+00     0.00
   65.00    25.00      -4.14 -999.99   -4.14    0.00000     0.00  LINEAR    1.85077E-01     3.98    0.00000E+00     0.00
   70.00    25.00      -6.81 -999.99   -6.81    0.00000     0.00  LINEAR    1.36178E-01   127.73    0.00000E+00     0.00
   75.00    25.00      -6.80 -999.99   -6.80    0.00000     0.00  LINEAR    1.36287E-01   129.90    0.00000E+00     0.00
   80.00    25.00      -5.85 -999.99   -5.85    0.00000     0.00  LINEAR    1.52100E-01   -54.81    0.00000E+00     0.00
   85.00    25.00       0.69 -999.99    0.69    0.00000     0.00  LINEAR    3.22733E-01   -56.00    0.00000E+00     0.00
   90.00    25.00      -6.66 -999.99   -6.66    0.00000     0.00  LINEAR    1.38484E-01   -34.39    0.00000E+00     0.00
    0.00    30.00    -999.99 -999.99 -999.99    0.00000     0.00            0.00000E+00     0.00    0.00000E+00     0.00
    5.00    30.00      -5.51 -999.99   -5.51    0.00000     0.00  LINEAR    1.58119E-01   -49.22    0.00000E+00     0.00
   10.00    30.00       0.88 -999.99    0.88    0.00000     0.00  LINEAR    3.30142E-01   -89.35    0.00000E+00     0.00
   15.00    30.00       5.06 -999.99    5.06    0.00000     0.00  LINEAR    5.34071E-01  -118.84    0.00000E+00     0.00
   20.00    30.00       6.68 -999.99    6.68    0.00000     0.00  LINEAR    6.43438E-01  -154.81    0.00000E+00     0.00
   25.00    30.00       6.85 -999.99    6.85    0.00000     0.00  LINEAR    6.56522E-01   170.57    0.00000E+00     0.00
   30.00    30.00       5.55 -999.99    5.55    0.00000     0.00  LINEAR    5.65196E-01   143.20    0.00000E+00     0.00
   35.00    30.00       0.80 -999.99    0.80    0.00000     0.00  LINEAR    3.27075E-01   115.24    0.00000E+00     0.00
   40.00    30.00     -38.47 -999.99  -38.47    0.00000     0.00  LINEAR    3.55748E-03   -17.93    0.00000E+00     0.00
   45.00    30.00      -3.92 -999.99   -3.92    0.00000     0.00  LINEAR    1.89810E-01  -120.20    0.00000E+00     0.00
   50.00    30.00      -8.40 -999.99   -8.40    0.00000     0.00  LINEAR    1.13418E-01  -137.91    0.00000E+00     0.00
   55.00    30.00      -5.56 -999.99   -5.56    0.00000     0.00  LINEAR    1.57262E-01    32.89    0.00000E+00     0.00
   60.00    30.00       1.18 -999.99    1.18    0.00000     0.00  LINEAR    3.41434E-01    19.44    0.00000E+00     0.00
   65.00    30.00      -3.80 -999.99   -3.80    0.00000     0.00  LINEAR    1.92549E-01    16.66    0.00000E+00     0.00
   70.00    30.00      -7.22 -999.99   -7.22    0.00000     0.00  LINEAR    1.29846E-01   138.81    0.00000E+00     0.00
   75.00    30.00      -6.48 -999.99   -6.48    0.00000     0.00  LINEAR    1.41404E-01   145.06    0.00000E+00     0.00
   80.00    30.00      -6.04 -999.99   -6.04    0.00000     0.00  LINEAR    1.48752E-01   -40.66    0.00000E+00     0.00
   85.00    30.00       0.85 -999.99    0.85    0.00000     0.00  LINEAR    3.28906E-01   -40.43    0.00000E+00     0.00
   90.00    30.00      -6.81 -999.99   -6.81    0.00000     0.00  LINEAR    1.36091E-01   -20.58    0.00000E+00     0.00
    0.00    35.00    -999.99 -999.99 -999.99    0.00000     0.00            0.00000E+00     0.00    0.00000E+00     0.00
    5.00    35.00      -5.48 -999.99   -5.48    0.00000     0.00  LINEAR    1.58647E-01   -47.31    0.00000E+00     0.00
   10.00    35.00       1.02 -999.99    1.02    0.00000     0.00  LINEAR    3.35451E-01   -84.85    0.00000E+00     0.00
   15.00    35.00       5.36 -999.99    5.36    0.00000     0.00  LINEAR    5.52472E-01  -112.15    0.00000E+00     0.00
   20.00    35.00       6.88 -999.99    6.88    0.00000     0.00  LINEAR    6.58734E-01  -146.25    0.00000E+00     0.00
   25.00    35.00       6.98 -999.99    6.98    0.00000     0.00  LINEAR    6.65815E-01  -179.25    0.00000E+00     0.00
   30.00    35.00       5.62 -999.99    5.62    0.00000     0.00  LINEAR    5.69315E-01   156.46    0.00000E+00     0.00
   35.00    35.00       0.68 -999.99    0.68    0.00000     0.00  LINEAR    3.22530E-01   130.83    0.00000E+00     0.00
   40.00    35.00     -22.41 -999.99  -22.41    0.00000     0.00  LINEAR    2.25959E-02   125.17    0.00000E+00     0.00
   45.00    35.00      -4.89 -999.99   -4.89    0.00000     0.00  LINEAR    1.69784E-01  -110.83    0.00000E+00     0.00
   50.00    35.00      -7.99 -999.99   -7.99    0.00000     0.00  LINEAR    1.18879E-01  -119.82    0.00000E+00     0.00
   55.00    35.00      -5.69 -999.99   -5.69    0.00000     0.00  LINEAR    1.54892E-01    37.70    0.00000E+00     0.00
   60.00    35.00       1.39 -999.99    1.39    0.00000     0.00  LINEAR    3.49871E-01    24.86    0.00000E+00     0.00
   65.00    35.00      -2.70 -999.99   -2.70    0.00000     0.00  LINEAR    2.18508E-01    12.21    0.00000E+00     0.00
   70.00    35.00     -12.06 -999.99  -12.06    0.00000     0.00  LINEAR    7.44313E-02   154.17    0.00000E+00     0.00
   75.00    35.00      -6.83 -999.99   -6.83    0.00000     0.00  LINEAR    1.35854E-01   152.44    0.00000E+00     0.00
   80.00    35.00      -9.82 -999.99   -9.82    0.00000     0.00  LINEAR    9.62501E-02    -6.93    0.00000E+00     0.00
   85.00    35.00      -1.31 -999.99   -1.31    0.00000     0.00  LINEAR    2.56548E-01   -16.67    0.00000E+00     0.00
   90.00    35.00      -8.28 -999.99   -8.28    0.00000     0.00  LINEAR    1.15007E-01    11.42    0.00000E+00     0.00
    0.00    40.00    -999.99 -999.99 -999.99    0.00000     0.00            0.00000E+00     0.00    0.00000E+00     0.00
    5.00    40.00      -5.46 -999.99   -5.46    0.00000     0.00  LINEAR    1.59077E-01   -45.19    0.00000E+00     0.00
   10.00    40.00       1.11 -999.99    1.11    0.00000     0.00  LINEAR    3.38742E-01   -80.20    0.00000E+00     0.00
   15.00    40.00       5.58 -999.99    5.58    0.00000     0.00  LINEAR    5.67195E-01  -105.23    0.00000E+00     0.00
   20.00    40.00       7.08 -999.99    7.08    0.00000     0.00  LINEAR    6.73502E-01  -136.50    0.00000E+00     0.00
   25.00    40.00       7.05 -999.99    7.05    0.00000     0.00  LINEAR    6.71666E-01  -167.26    0.00000E+00     0.00
   30.00    40.00       5.71 -999.99    5.71    0.00000     0.00  LINEAR    5.75371E-01   170.98    0.00000E+00     0.00
   35.00    40.00       0.57 -999.99    0.57    0.00000     0.00  LINEAR    3.18339E-01   147.90    0.00000E+00     0.00
   40.00    40.00     -30.53 -999.99  -30.53    0.00000     0.00  LINEAR    8.87504E-03   115.51    0.00000E+00     0.00
   45.00    40.00      -3.83 -999.99   -3.83    0.00000     0.00  LINEAR    1.91781E-01   -86.02    0.00000E+00     0.00
   50.00    40.00      -5.42 -999.99   -5.42    0.00000     0.00  LINEAR    1.59730E-01   -99.35    0.00000E+00     0.00
   55.00    40.00      -6.42 -999.99   -6.42    0.00000     0.00  LINEAR    1.42403E-01    63.05    0.00000E+00     0.00
   60.00    40.00       1.64 -999.99    1.64    0.00000     0.00  LINEAR    3.60330E-01    47.77    0.00000E+00     0.00
   65.00    40.00      -2.86 -999.99   -2.86    0.00000     0.00  LINEAR    2.14525E-01    33.46    0.00000E+00     0.00
   70.00    40.00      -9.90 -999.99   -9.90    0.00000     0.00  LINEAR    9.53848E-02  -177.38    0.00000E+00     0.00
   75.00    40.00      -6.07 -999.99   -6.07    0.00000     0.00  LINEAR    1.48197E-01   175.43    0.00000E+00     0.00
   80.00    40.00      -7.75 -999.99   -7.75    0.00000     0.00  LINEAR    1.22144E-01    17.61    0.00000E+00     0.00
   85.00    40.00      -0.03 -999.99   -0.03    0.00000     0.00  LINEAR    2.97096E-01     8.51    0.00000E+00     0.00
   90.00    40.00      -7.24 -999.99   -7.24    0.00000     0.00  LINEAR    1.29599E-01    34.48    0.00000E+00     0.00
    0.00    45.00    -999.99 -999.99 -999.99    0.00000     0.00            0.00000E+00     0.00    0.00000E+00     0.00
    5.00    45.00      -5.44 -999.99   -5.44    0.00000     0.00  LINEAR    1.59383E-01   -42.89    0.00000E+00     0.00
   10.00    45.00       1.12 -999.99    1.12    0.00000     0.00  LINEAR    3.39334E-01   -75.46    0.00000E+00     0.00
   15.00    45.00       5.70 -999.99    5.70    0.00000     0.00  LINEAR    5.74693E-01   -98.35    0.00000E+00     0.00
   20.00    45.00       7.21 -999.99    7.21    0.00000     0.00  LINEAR    6.84253E-01  -126.50    0.00000E+00     0.00
   25.00    45.00       7.06 -999.99    7.06    0.00000     0.00  LINEAR    6.72290E-01  -154.71    0.00000E+00     0.00
   30.00    45.00       5.69 -999.99    5.69    0.00000     0.00  LINEAR    5.74267E-01  -174.68    0.00000E+00     0.00
   35.00    45.00       0.56 -999.99    0.56    0.00000     0.00  LINEAR    3.18125E-01   164.39    0.00000E+00     0.00
   40.00    45.00     -33.16 -999.99  -33.16    0.00000     0.00  LINEAR    6.55233E-03    12.27    0.00000E+00     0.00
   45.00    45.00      -2.99 -999.99   -2.99    0.00000     0.00  LINEAR    2.11299E-01   -61.83    0.00000E+00     0.00
   50.00    45.00      -4.44 -999.99   -4.44    0.00000     0.00  LINEAR    1.78760E-01   -77.20    0.00000E+00     0.00
   55.00    45.00      -5.59 -999.99   -5.59    0.00000     0.00  LINEAR    1.56732E-01    89.78    0.00000E+00     0.00
   60.00    45.00       2.68 -999.99    2.68    0.00000     0.00  LINEAR    4.06086E-01    75.51    0.00000E+00     0.00
   65.00    45.00      -1.74 -999.99   -1.74    0.00000     0.00  LINEAR    2.44115E-01    64.75    0.00000E+00     0.00
   70.00    45.00      -9.48 -999.99   -9.48    0.00000     0.00  LINEAR    1.00105E-01  -155.18    0.00000E+00     0.00
   75.00    45.00      -5.93 -999.99   -5.93    0.00000     0.00  LINEAR    1.50621E-01  -152.99    0.00000E+00     0.00
   80.00    45.00      -6.75 -999.99   -6.75    0.00000     0.00  LINEAR    1.37148E-01    34.84    0.00000E+00     0.00
   85.00    45.00       0.76 -999.99    0.76    0.00000     0.00  LINEAR    3.25379E-01    31.96    0.00000E+00     0.00
   90.00    45.00      -6.87 -999.99   -6.87    0.00000     0.00  LINEAR    1.35175E-01    53.40    0.00000E+00     0.00
    0.00    50.00    -999.99 -999.99 -999.99    0.00000     0.00            0.00000E+00     0.00    0.00000E+00     0.00
    5.00    50.00      -5.43 -999.99   -5.43    0.00000     0.00  LINEAR    1.59556E-01   -40.42    0.00000E+00     0.00
   10.00    50.00       1.06 -999.99    1.06    0.00000     0.00  LINEAR    3.36982E-01   -70.64    0.00000E+00     0.00
   15.00    50.00       5.66 -999.99    5.66    0.00000     0.00  LINEAR    5.72338E-01   -91.59    0.00000E+00     0.00
   20.00    50.00       7.24 -999.99    7.24    0.00000     0.00  LINEAR    6.86400E-01  -116.89    0.00000E+00     0.00
   25.00    50.00       7.02 -999.99    7.02    0.00000     0.00  LINEAR    6.69095E-01  -142.71    0.00000E+00     0.00
   30.00    50.00       5.58 -999.99    5.58    0.00000     0.00  LINEAR    5.66976E-01  -161.16    0.00000E+00     0.00
   35.00    50.00       0.62 -999.99    0.62    0.00000     0.00  LINEAR    3.20358E-01   179.43    0.00000E+00     0.00
   40.00    50.00     -37.20 -999.99  -37.20    0.00000     0.00  LINEAR    4.11862E-03  -175.87    0.00000E+00     0.00
   45.00    50.00      -3.82 -999.99   -3.82    0.00000     0.00  LINEAR    1.92055E-01   -43.56    0.00000E+00     0.00
   50.00    50.00      -5.61 -999.99   -5.61    0.00000     0.00  LINEAR    1.56344E-01   -53.19    0.00000E+00     0.00
   55.00    50.00      -5.71 -999.99   -5.71    0.00000     0.00  LINEAR    1.54518E-01    99.23    0.00000E+00     0.00
   60.00    50.00       2.40 -999.99    2.40    0.00000     0.00  LINEAR    3.93211E-01    92.36    0.00000E+00     0.00
[...]
   40.00   315.00     -33.16 -999.99  -33.16    0.00000     0.00  LINEAR    6.55233E-03    12.27    0.00000E+00     0.00
   45.00   315.00      -2.99 -999.99   -2.99    0.00000     0.00  LINEAR    2.11299E-01   -61.83    0.00000E+00     0.00
   50.00   315.00      -4.44 -999.99   -4.44    0.00000     0.00  LINEAR    1.78760E-01   -77.20    0.00000E+00     0.00
   55.00   315.00      -5.59 -999.99   -5.59    0.00000     0.00  LINEAR    1.56732E-01    89.78    0.00000E+00     0.00
   60.00   315.00       2.68 -999.99    2.68    0.00000     0.00  LINEAR    4.06086E-01    75.51    0.00000E+00     0.00
   65.00   315.00      -1.74 -999.99   -1.74    0.00000     0.00  LINEAR    2.44115E-01    64.75    0.00000E+00     0.00
   70.00   315.00      -9.48 -999.99   -9.48    0.00000     0.00  LINEAR    1.00105E-01  -155.18    0.00000E+00     0.00
   75.00   315.00      -5.93 -999.99   -5.93    0.00000     0.00  LINEAR    1.50621E-01  -152.99    0.00000E+00     0.00
   80.00   315.00      -6.75 -999.99   -6.75    0.00000     0.00  LINEAR    1.37148E-01    34.84    0.00000E+00     0.00
   85.00   315.00       0.76 -999.99    0.76    0.00000     0.00  LINEAR    3.25379E-01    31.96    0.00000E+00     0.00
   90.00   315.00      -6.87 -999.99   -6.87    0.00000     0.00  LINEAR    1.35175E-01    53.40    0.00000E+00     0.00
    0.00   320.00    -999.99 -999.99 -999.99    0.00000     0.00            0.00000E+00     0.00    0.00000E+00     0.00
    5.00   320.00      -5.46 -999.99   -5.46    0.00000     0.00  LINEAR    1.59077E-01   -45.19    0.00000E+00     0.00
   10.00   320.00       1.11 -999.99    1.11    0.00000     0.00  LINEAR    3.38742E-01   -80.20    0.00000E+00     0.00
   15.00   320.00       5.58 -999.99    5.58    0.00000     0.00  LINEAR    5.67195E-01  -105.23    0.00000E+00     0.00
   20.00   320.00       7.08 -999.99    7.08    0.00000     0.00  LINEAR    6.73502E-01  -136.50    0.00000E+00     0.00
   25.00   320.00       7.05 -999.99    7.05    0.00000     0.00  LINEAR    6.71666E-01  -167.26    0.00000E+00     0.00
   30.00   320.00       5.71 -999.99    5.71    0.00000     0.00  LINEAR    5.75371E-01   170.98    0.00000E+00     0.00
   35.00   320.00       0.57 -999.99    0.57    0.00000     0.00  LINEAR    3.18339E-01   147.90    0.00000E+00     0.00
   40.00   320.00     -30.53 -999.99  -30.53    0.00000     0.00  LINEAR    8.87504E-03   115.51    0.00000E+00     0.00
   45.00   320.00      -3.83 -999.99   -3.83    0.00000     0.00  LINEAR    1.91781E-01   -86.02    0.00000E+00     0.00
   50.00   320.00      -5.42 -999.99   -5.42    0.00000     0.00  LINEAR    1.59730E-01   -99.35    0.00000E+00     0.00
   55.00   320.00      -6.42 -999.99   -6.42    0.00000     0.00  LINEAR    1.42403E-01    63.05    0.00000E+00     0.00
   60.00   320.00       1.64 -999.99    1.64    0.00000     0.00  LINEAR    3.60330E-01    47.77    0.00000E+00     0.00
   65.00   320.00      -2.86 -999.99   -2.86    0.00000     0.00  LINEAR    2.14525E-01    33.46    0.00000E+00     0.00
   70.00   320.00      -9.90 -999.99   -9.90    0.00000     0.00  LINEAR    9.53848E-02  -177.38    0.00000E+00     0.00
   75.00   320.00      -6.07 -999.99   -6.07    0.00000     0.00  LINEAR    1.48197E-01   175.43    0.00000E+00     0.00
   80.00   320.00      -7.75 -999.99   -7.75    0.00000     0.00  LINEAR    1.22144E-01    17.61    0.00000E+00     0.00
   85.00   320.00      -0.03 -999.99   -0.03    0.00000     0.00  LINEAR    2.97096E-01     8.51    0.00000E+00     0.00
   90.00   320.00      -7.24 -999.99   -7.24    0.00000     0.00  LINEAR    1.29599E-01    34.48    0.00000E+00     0.00
    0.00   325.00    -999.99 -999.99 -999.99    0.00000     0.00            0.00000E+00     0.00    0.00000E+00     0.00
    5.00   325.00      -5.48 -999.99   -5.48    0.00000     0.00  LINEAR    1.58647E-01   -47.31    0.00000E+00     0.00
   10.00   325.00       1.02 -999.99    1.02    0.00000     0.00  LINEAR    3.35451E-01   -84.85    0.00000E+00     0.00
   15.00   325.00       5.36 -999.99    5.36    0.00000     0.00  LINEAR    5.52472E-01  -112.15    0.00000E+00     0.00
   20.00   325.00       6.88 -999.99    6.88    0.00000     0.00  LINEAR    6.58734E-01  -146.25    0.00000E+00     0.00
   25.00   325.00       6.98 -999.99    6.98    0.00000     0.00  LINEAR    6.65815E-01  -179.25    0.00000E+00     0.00
   30.00   325.00       5.62 -999.99    5.62    0.00000     0.00  LINEAR    5.69315E-01   156.46    0.00000E+00     0.00
   35.00   325.00       0.68 -999.99    0.68    0.00000     0.00  LINEAR    3.22530E-01   130.83    0.00000E+00     0.00
   40.00   325.00     -22.41 -999.99  -22.41    0.00000     0.00  LINEAR    2.25959E-02   125.17    0.00000E+00     0.00
   45.00   325.00      -4.89 -999.99   -4.89    0.00000     0.00  LINEAR    1.69784E-01  -110.83    0.00000E+00     0.00
   50.00   325.00      -7.99 -999.99   -7.99    0.00000     0.00  LINEAR    1.18879E-01  -119.82    0.00000E+00     0.00
   55.00   325.00      -5.69 -999.99   -5.69    0.00000     0.00  LINEAR    1.54892E-01    37.70    0.00000E+00     0.00
   60.00   325.00       1.39 -999.99    1.39    0.00000     0.00  LINEAR    3.49871E-01    24.86    0.00000E+00     0.00
   65.00   325.00      -2.70 -999.99   -2.70    0.00000     0.00  LINEAR    2.18508E-01    12.21    0.00000E+00     0.00
   70.00   325.00     -12.06 -999.99  -12.06    0.00000     0.00  LINEAR    7.44313E-02   154.17    0.00000E+00     0.00
   75.00   325.00      -6.83 -999.99   -6.83    0.00000     0.00  LINEAR    1.35854E-01   152.44    0.00000E+00     0.00
   80.00   325.00      -9.82 -999.99   -9.82    0.00000     0.00  LINEAR    9.62501E-02    -6.93    0.00000E+00     0.00
   85.00   325.00      -1.31 -999.99   -1.31    0.00000     0.00  LINEAR    2.56548E-01   -16.67    0.00000E+00     0.00
   90.00   325.00      -8.28 -999.99   -8.28    0.00000     0.00  LINEAR    1.15007E-01    11.42    0.00000E+00     0.00
    0.00   330.00    -999.99 -999.99 -999.99    0.00000     0.00            0.00000E+00     0.00    0.00000E+00     0.00
    5.00   330.00      -5.51 -999.99   -5.51    0.00000     0.00  LINEAR    1.58119E-01   -49.22    0.00000E+00     0.00
   10.00   330.00       0.88 -999.99    0.88    0.00000     0.00  LINEAR    3.30142E-01   -89.35    0.00000E+00     0.00
   15.00   330.00       5.06 -999.99    5.06    0.00000     0.00  LINEAR    5.34071E-01  -118.84    0.00000E+00     0.00
   20.00   330.00       6.68 -999.99    6.68    0.00000     0.00  LINEAR    6.43438E-01  -154.81    0.00000E+00     0.00
   25.00   330.00       6.85 -999.99    6.85    0.00000     0.00  LINEAR    6.56522E-01   170.57    0.00000E+00     0.00
   30.00   330.00       5.55 -999.99    5.55    0.00000     0.00  LINEAR    5.65196E-01   143.20    0.00000E+00     0.00
   35.00   330.00       0.80 -999.99    0.80    0.00000     0.00  LINEAR    3.27075E-01   115.24    0.00000E+00     0.00
   40.00   330.00     -38.47 -999.99  -38.47    0.00000     0.00  LINEAR    3.55748E-03   -17.93    0.00000E+00     0.00
   45.00   330.00      -3.92 -999.99   -3.92    0.00000     0.00  LINEAR    1.89810E-01  -120.20    0.00000E+00     0.00
   50.00   330.00      -8.40 -999.99   -8.40    0.00000     0.00  LINEAR    1.13418E-01  -137.91    0.00000E+00     0.00
   55.00   330.00      -5.56 -999.99   -5.56    0.00000     0.00  LINEAR    1.57262E-01    32.89    0.00000E+00     0.00
   60.00   330.00       1.18 -999.99    1.18    0.00000     0.00  LINEAR    3.41434E-01    19.44    0.00000E+00     0.00
   65.00   330.00      -3.80 -999.99   -3.80    0.00000     0.00  LINEAR    1.92549E-01    16.66    0.00000E+00     0.00
   70.00   330.00      -7.22 -999.99   -7.22    0.00000     0.00  LINEAR    1.29846E-01   138.81    0.00000E+00     0.00
   75.00   330.00      -6.48 -999.99   -6.48    0.00000     0.00  LINEAR    1.41404E-01   145.06    0.00000E+00     0.00
   80.00   330.00      -6.04 -999.99   -6.04    0.00000     0.00  LINEAR    1.48752E-01   -40.66    0.00000E+00     0.00
   85.00   330.00       0.85 -999.99    0.85    0.00000     0.00  LINEAR    3.28906E-01   -40.43    0.00000E+00     0.00
   90.00   330.00      -6.81 -999.99   -6.81    0.00000     0.00  LINEAR    1.36091E-01   -20.58    0.00000E+00     0.00
    0.00   335.00    -999.99 -999.99 -999.99    0.00000     0.00            0.00000E+00     0.00    0.00000E+00     0.00
    5.00   335.00      -5.54 -999.99   -5.54    0.00000     0.00  LINEAR    1.57536E-01   -50.90    0.00000E+00     0.00
   10.00   335.00       0.71 -999.99    0.71    0.00000     0.00  LINEAR    3.23736E-01   -93.60    0.00000E+00     0.00
   15.00   335.00       4.75 -999.99    4.75    0.00000     0.00  LINEAR    5.15194E-01  -124.93    0.00000E+00     0.00
   20.00   335.00       6.49 -999.99    6.49    0.00000     0.00  LINEAR    6.29768E-01  -161.38    0.00000E+00     0.00
   25.00   335.00       6.76 -999.99    6.76    0.00000     0.00  LINEAR    6.49219E-01   163.17    0.00000E+00     0.00
   30.00   335.00       5.61 -999.99    5.61    0.00000     0.00  LINEAR    5.68959E-01   132.84    0.00000E+00     0.00
   35.00   335.00       0.81 -999.99    0.81    0.00000     0.00  LINEAR    3.27462E-01   102.39    0.00000E+00     0.00
   40.00   335.00     -13.71 -999.99  -13.71    0.00000     0.00  LINEAR    6.15468E-02   -61.74    0.00000E+00     0.00
   45.00   335.00      -1.89 -999.99   -1.89    0.00000     0.00  LINEAR    2.39994E-01  -122.28    0.00000E+00     0.00
   50.00   335.00      -6.98 -999.99   -6.98    0.00000     0.00  LINEAR    1.33555E-01  -149.35    0.00000E+00     0.00
   55.00   335.00      -5.60 -999.99   -5.60    0.00000     0.00  LINEAR    1.56422E-01    20.40    0.00000E+00     0.00
   60.00   335.00       1.25 -999.99    1.25    0.00000     0.00  LINEAR    3.44218E-01     6.05    0.00000E+00     0.00
   65.00   335.00      -4.14 -999.99   -4.14    0.00000     0.00  LINEAR    1.85077E-01     3.98    0.00000E+00     0.00
   70.00   335.00      -6.81 -999.99   -6.81    0.00000     0.00  LINEAR    1.36178E-01   127.73    0.00000E+00     0.00
   75.00   335.00      -6.80 -999.99   -6.80    0.00000     0.00  LINEAR    1.36287E-01   129.90    0.00000E+00     0.00
   80.00   335.00      -5.85 -999.99   -5.85    0.00000     0.00  LINEAR    1.52100E-01   -54.81    0.00000E+00     0.00
   85.00   335.00       0.69 -999.99    0.69    0.00000     0.00  LINEAR    3.22733E-01   -56.00    0.00000E+00     0.00
   90.00   335.00      -6.66 -999.99   -6.66    0.00000     0.00  LINEAR    1.38484E-01   -34.39    0.00000E+00     0.00
    0.00   340.00    -999.99 -999.99 -999.99    0.00000     0.00            0.00000E+00     0.00    0.00000E+00     0.00
    5.00   340.00      -5.57 -999.99   -5.57    0.00000     0.00  LINEAR    1.56951E-01   -52.32    0.00000E+00     0.00
   10.00   340.00       0.54 -999.99    0.54    0.00000     0.00  LINEAR    3.17189E-01   -97.42    0.00000E+00     0.00
   15.00   340.00       4.46 -999.99    4.46    0.00000     0.00  LINEAR    4.98059E-01  -130.06    0.00000E+00     0.00
   20.00   340.00       6.35 -999.99    6.35    0.00000     0.00  LINEAR    6.19618E-01  -165.63    0.00000E+00     0.00
   25.00   340.00       6.76 -999.99    6.76    0.00000     0.00  LINEAR    6.49368E-01   158.88    0.00000E+00     0.00
   30.00   340.00       5.72 -999.99    5.72    0.00000     0.00  LINEAR    5.76381E-01   125.89    0.00000E+00     0.00
   35.00   340.00       0.76 -999.99    0.76    0.00000     0.00  LINEAR    3.25296E-01    92.61    0.00000E+00     0.00
   40.00   340.00      -9.29 -999.99   -9.29    0.00000     0.00  LINEAR    1.02297E-01   -68.93    0.00000E+00     0.00
   45.00   340.00      -0.94 -999.99   -0.94    0.00000     0.00  LINEAR    2.67663E-01  -129.15    0.00000E+00     0.00
   50.00   340.00      -6.83 -999.99   -6.83    0.00000     0.00  LINEAR    1.35859E-01  -159.57    0.00000E+00     0.00
   55.00   340.00      -4.99 -999.99   -4.99    0.00000     0.00  LINEAR    1.67813E-01    -5.25    0.00000E+00     0.00
   60.00   340.00       1.48 -999.99    1.48    0.00000     0.00  LINEAR    3.53771E-01   -18.16    0.00000E+00     0.00
   65.00   340.00      -3.06 -999.99   -3.06    0.00000     0.00  LINEAR    2.09668E-01   -25.57    0.00000E+00     0.00
   70.00   340.00      -9.36 -999.99   -9.36    0.00000     0.00  LINEAR    1.01468E-01   104.35    0.00000E+00     0.00
   75.00   340.00      -6.62 -999.99   -6.62    0.00000     0.00  LINEAR    1.39137E-01   105.35    0.00000E+00     0.00
   80.00   340.00      -7.40 -999.99   -7.40    0.00000     0.00  LINEAR    1.27260E-01   -66.34    0.00000E+00     0.00
   85.00   340.00       0.00 -999.99    0.00    0.00000     0.00  LINEAR    2.98063E-01   -72.01    0.00000E+00     0.00
   90.00   340.00      -7.52 -999.99   -7.52    0.00000     0.00  LINEAR    1.25467E-01   -46.95    0.00000E+00     0.00
    0.00   345.00    -999.99 -999.99 -999.99    0.00000     0.00            0.00000E+00     0.00    0.00000E+00     0.00
    5.00   345.00      -5.60 -999.99   -5.60    0.00000     0.00  LINEAR    1.56421E-01   -53.45    0.00000E+00     0.00
   10.00   345.00       0.37 -999.99    0.37    0.00000     0.00  LINEAR    3.11328E-01  -100.66    0.00000E+00     0.00
   15.00   345.00       4.21 -999.99    4.21    0.00000     0.00  LINEAR    4.83948E-01  -134.01    0.00000E+00     0.00
   20.00   345.00       6.28 -999.99    6.28    0.00000     0.00  LINEAR    6.14495E-01  -167.82    0.00000E+00     0.00
   25.00   345.00       6.88 -999.99    6.88    0.00000     0.00  LINEAR    6.58436E-01   157.17    0.00000E+00     0.00
   30.00   345.00       5.77 -999.99    5.77    0.00000     0.00  LINEAR    5.79408E-01   121.61    0.00000E+00     0.00
   35.00   345.00       0.75 -999.99    0.75    0.00000     0.00  LINEAR    3.25156E-01    86.03    0.00000E+00     0.00
   40.00   345.00     -10.30 -999.99  -10.30    0.00000     0.00  LINEAR    9.11213E-02   -73.83    0.00000E+00     0.00
   45.00   345.00      -1.46 -999.99   -1.46    0.00000     0.00  LINEAR    2.52051E-01  -139.68    0.00000E+00     0.00
   50.00   345.00      -7.72 -999.99   -7.72    0.00000     0.00  LINEAR    1.22615E-01  -170.97    0.00000E+00     0.00
   55.00   345.00      -4.67 -999.99   -4.67    0.00000     0.00  LINEAR    1.74100E-01   -23.11    0.00000E+00     0.00
   60.00   345.00       1.49 -999.99    1.49    0.00000     0.00  LINEAR    3.54151E-01   -36.99    0.00000E+00     0.00
   65.00   345.00      -2.64 -999.99   -2.64    0.00000     0.00  LINEAR    2.19940E-01   -46.05    0.00000E+00     0.00
   70.00   345.00      -8.74 -999.99   -8.74    0.00000     0.00  LINEAR    1.09027E-01    99.64    0.00000E+00     0.00
   75.00   345.00      -4.93 -999.99   -4.93    0.00000     0.00  LINEAR    1.68984E-01    96.65    0.00000E+00     0.00
   80.00   345.00      -6.34 -999.99   -6.34    0.00000     0.00  LINEAR    1.43753E-01   -69.52    0.00000E+00     0.00
   85.00   345.00       1.22 -999.99    1.22    0.00000     0.00  LINEAR    3.43194E-01   -78.66    0.00000E+00     0.00
   90.00   345.00      -7.55 -999.99   -7.55    0.00000     0.00  LINEAR    1.25007E-01   -60.44    0.00000E+00     0.00
    0.00   350.00    -999.99 -999.99 -999.99    0.00000     0.00            0.00000E+00     0.00    0.00000E+00     0.00
    5.00   350.00      -5.63 -999.99   -5.63    0.00000     0.00  LINEAR    1.55998E-01   -54.28    0.00000E+00     0.00
   10.00   350.00       0.25 -999.99    0.25    0.00000     0.00  LINEAR    3.06764E-01  -103.13    0.00000E+00     0.00
   15.00   350.00       4.02 -999.99    4.02    0.00000     0.00  LINEAR    4.73541E-01  -136.74    0.00000E+00     0.00
   20.00   350.00       6.28 -999.99    6.28    0.00000     0.00  LINEAR    6.14155E-01  -168.60    0.00000E+00     0.00
   25.00   350.00       7.07 -999.99    7.07    0.00000     0.00  LINEAR    6.72619E-01   156.97    0.00000E+00     0.00
   30.00   350.00       5.70 -999.99    5.70    0.00000     0.00  LINEAR    5.74670E-01   118.97    0.00000E+00     0.00
   35.00   350.00       0.84 -999.99    0.84    0.00000     0.00  LINEAR    3.28537E-01    82.36    0.00000E+00     0.00
   40.00   350.00     -17.08 -999.99  -17.08    0.00000     0.00  LINEAR    4.17262E-02   -74.11    0.00000E+00     0.00
   45.00   350.00      -2.63 -999.99   -2.63    0.00000     0.00  LINEAR    2.20229E-01  -149.51    0.00000E+00     0.00
   50.00   350.00      -7.93 -999.99   -7.93    0.00000     0.00  LINEAR    1.19736E-01   179.77    0.00000E+00     0.00
   55.00   350.00      -5.24 -999.99   -5.24    0.00000     0.00  LINEAR    1.63058E-01   -23.89    0.00000E+00     0.00
   60.00   350.00       1.28 -999.99    1.28    0.00000     0.00  LINEAR    3.45443E-01   -42.30    0.00000E+00     0.00
   65.00   350.00      -2.85 -999.99   -2.85    0.00000     0.00  LINEAR    2.14719E-01   -55.22    0.00000E+00     0.00
   70.00   350.00      -8.27 -999.99   -8.27    0.00000     0.00  LINEAR    1.15084E-01    99.80    0.00000E+00     0.00
   75.00   350.00      -4.46 -999.99   -4.46    0.00000     0.00  LINEAR    1.78414E-01    91.58    0.00000E+00     0.00
   80.00   350.00      -6.24 -999.99   -6.24    0.00000     0.00  LINEAR    1.45435E-01   -74.38    0.00000E+00     0.00
   85.00   350.00       1.38 -999.99    1.38    0.00000     0.00  LINEAR    3.49735E-01   -84.97    0.00000E+00     0.00
   90.00   350.00      -7.85 -999.99   -7.85    0.00000     0.00  LINEAR    1.20852E-01   -69.43    0.00000E+00     0.00
    0.00   355.00    -999.99 -999.99 -999.99    0.00000     0.00            0.00000E+00     0.00    0.00000E+00     0.00
    5.00   355.00      -5.64 -999.99   -5.64    0.00000     0.00  LINEAR    1.55725E-01   -54.78    0.00000E+00     0.00
   10.00   355.00       0.16 -999.99    0.16    0.00000     0.00  LINEAR    3.03889E-01  -104.67    0.00000E+00     0.00
   15.00   355.00       3.90 -999.99    3.90    0.00000     0.00  LINEAR    4.67188E-01  -138.30    0.00000E+00     0.00
   20.00   355.00       6.30 -999.99    6.30    0.00000     0.00  LINEAR    6.16119E-01  -168.71    0.00000E+00     0.00
   25.00   355.00       7.23 -999.99    7.23    0.00000     0.00  LINEAR    6.85106E-01   157.26    0.00000E+00     0.00
   30.00   355.00       5.57 -999.99    5.57    0.00000     0.00  LINEAR    5.66452E-01   117.42    0.00000E+00     0.00
   35.00   355.00       0.96 -999.99    0.96    0.00000     0.00  LINEAR    3.33010E-01    80.79    0.00000E+00     0.00
   40.00   355.00     -29.26 -999.99  -29.26    0.00000     0.00  LINEAR    1.02659E-02    64.30    0.00000E+00     0.00
   45.00   355.00      -3.58 -999.99   -3.58    0.00000     0.00  LINEAR    1.97538E-01  -154.85    0.00000E+00     0.00
   50.00   355.00      -7.26 -999.99   -7.26    0.00000     0.00  LINEAR    1.29218E-01   175.58    0.00000E+00     0.00
   55.00   355.00      -5.24 -999.99   -5.24    0.00000     0.00  LINEAR    1.63090E-01   -11.92    0.00000E+00     0.00
   60.00   355.00       1.34 -999.99    1.34    0.00000     0.00  LINEAR    3.47801E-01   -37.85    0.00000E+00     0.00
   65.00   355.00      -2.76 -999.99   -2.76    0.00000     0.00  LINEAR    2.17069E-01   -54.82    0.00000E+00     0.00
   70.00   355.00     -10.48 -999.99  -10.48    0.00000     0.00  LINEAR    8.92516E-02    78.50    0.00000E+00     0.00
   75.00   355.00      -5.77 -999.99   -5.77    0.00000     0.00  LINEAR    1.53536E-01    77.93    0.00000E+00     0.00
   80.00   355.00      -8.09 -999.99   -8.09    0.00000     0.00  LINEAR    1.17554E-01   -86.82    0.00000E+00     0.00
   85.00   355.00       0.10 -999.99    0.10    0.00000     0.00  LINEAR    3.01664E-01   -96.08    0.00000E+00     0.00
   90.00   355.00      -8.00 -999.99   -8.00    0.00000     0.00  LINEAR    1.18755E-01   -73.35    0.00000E+00     0.00






 ***** DATA CARD NO. 16   EN   0     0     0     0  0.00000E+00  0.00000E+00  0.00000E+00  0.00000E+00  0.00000E+00  0.00000E+00

 RUN TIME =     0.219
