1



                                 *********************************************

                                    NUMERICAL ELECTROMAGNETICS CODE (NEC-2D)

                                 *********************************************




                                     - - - - COMMENTS - - - -


                                                                                                     
                                                                                                     




                                 - - - STRUCTURE SPECIFICATION - - -

                                     COORDINATES MUST BE INPUT IN
                                     METERS OR BE SCALED TO METERS
                                     BEFORE STRUCTURE INPUT IS ENDED


  WIRE                                                                               NO. OF    FIRST  LAST     TAG
  NO.        X1         Y1         Z1          X2         Y2         Z2      RADIUS   SEG.     SEG.   SEG.     NO.
     1   -7.50000   -5.00000   -5.00000    -7.50000   -5.00000    5.00000    0.00100     20        1    20     101
     2   -2.50000   -5.00000   -5.00000    -2.50000   -5.00000    5.00000    0.00100     20       21    40     102
     3    2.50000   -5.00000   -5.00000     2.50000   -5.00000    5.00000    0.00100     20       41    60     103
     4    7.50000   -5.00000   -5.00000     7.50000   -5.00000    5.00000    0.00100     20       61    80     104
     5   -7.50000    0.00000   -5.00000    -7.50000    0.00000    5.00000    0.00100     20       81   100     201
     6   -2.50000    0.00000   -5.00000    -2.50000    0.00000    5.00000    0.00100     20      101   120     202
     7    2.50000    0.00000   -5.00000     2.50000    0.00000    5.00000    0.00100     20      121   140     203
     8    7.50000    0.00000   -5.00000     7.50000    0.00000    5.00000    0.00100     20      141   160     204
     9   -7.50000    5.00000   -5.00000    -7.50000    5.00000    5.00000    0.00100     20      161   180     301
    10   -2.50000    5.00000   -5.00000    -2.50000    5.00000    5.00000    0.00100     20      181   200     302
    11    2.50000    5.00000   -5.00000     2.50000    5.00000    5.00000    0.00100     20      201   220     303
    12    7.50000    5.00000   -5.00000     7.50000    5.00000    5.00000    0.00100     20      221   240     304

   TOTAL SEGMENTS USED=  240     NO. SEG. IN A SYMMETRIC CELL=  240     SYMMETRY FLAG=  0


         - MULTIPLE WIRE JUNCTIONS -
 JUNCTION    SEGMENTS  (- FOR END 1, + FOR END 2)
  NONE




                                 - - - - SEGMENTATION DATA - - - -

                                        COORDINATES IN METERS

                         I+ AND I- INDICATE THE SEGMENTS BEFORE AND AFTER I


  SEG.   COORDINATES OF SEG. CENTER     SEG.     ORIENTATION ANGLES    WIRE    CONNECTION DATA   TAG
  NO.       X         Y         Z       LENGTH     ALPHA     BETA      RADIUS    I-   I    I+    NO.
     1  -7.50000  -5.00000  -4.75000   0.50000   90.00000   0.00000   0.00100     0    1    2    101
     2  -7.50000  -5.00000  -4.25000   0.50000   90.00000   0.00000   0.00100     1    2    3    101
     3  -7.50000  -5.00000  -3.75000   0.50000   90.00000   0.00000   0.00100     2    3    4    101
     4  -7.50000  -5.00000  -3.25000   0.50000   90.00000   0.00000   0.00100     3    4    5    101
     5  -7.50000  -5.00000  -2.75000   0.50000   90.00000   0.00000   0.00100     4    5    6    101
     6  -7.50000  -5.00000  -2.25000   0.50000   90.00000   0.00000   0.00100     5    6    7    101
     7  -7.50000  -5.00000  -1.75000   0.50000   90.00000   0.00000   0.00100     6    7    8    101
     8  -7.50000  -5.00000  -1.25000   0.50000   90.00000   0.00000   0.00100     7    8    9    101
     9  -7.50000  -5.00000  -0.75000   0.50000   90.00000   0.00000   0.00100     8    9   10    101
    10  -7.50000  -5.00000  -0.25000   0.50000   90.00000   0.00000   0.00100     9   10   11    101
    11  -7.50000  -5.00000   0.25000   0.50000   90.00000   0.00000   0.00100    10   11   12    101
    12  -7.50000  -5.00000   0.75000   0.50000   90.00000   0.00000   0.00100    11   12   13    101
    13  -7.50000  -5.00000   1.25000   0.50000   90.00000   0.00000   0.00100    12   13   14    101
    14  -7.50000  -5.00000   1.75000   0.50000   90.00000   0.00000   0.00100    13   14   15    101
    15  -7.50000  -5.00000   2.25000   0.50000   90.00000   0.00000   0.00100    14   15   16    101
    16  -7.50000  -5.00000   2.75000   0.50000   90.00000   0.00000   0.00100    15   16   17    101
    17  -7.50000  -5.00000   3.25000   0.50000   90.00000   0.00000   0.00100    16   17   18    101
    18  -7.50000  -5.00000   3.75000   0.50000   90.00000   0.00000   0.00100    17   18   19    101
    19  -7.50000  -5.00000   4.25000   0.50000   90.00000   0.00000   0.00100    18   19   20    101
    20  -7.50000  -5.00000   4.75000   0.50000   90.00000   0.00000   0.00100    19   20    0    101
    21  -2.50000  -5.00000  -4.75000   0.50000   90.00000   0.00000   0.00100     0   21   22    102
    22  -2.50000  -5.00000  -4.25000   0.50000   90.00000   0.00000   0.00100    21   22   23    102
    23  -2.50000  -5.00000  -3.75000   0.50000   90.00000   0.00000   0.00100    22   23   24    102
    24  -2.50000  -5.00000  -3.25000   0.50000   90.00000   0.00000   0.00100    23   24   25    102
    25  -2.50000  -5.00000  -2.75000   0.50000   90.00000   0.00000   0.00100    24   25   26    102
    26  -2.50000  -5.00000  -2.25000   0.50000   90.00000   0.00000   0.00100    25   26   27    102
    27  -2.50000  -5.00000  -1.75000   0.50000   90.00000   0.00000   0.00100    26   27   28    102
    28  -2.50000  -5.00000  -1.25000   0.50000   90.00000   0.00000   0.00100    27   28   29    102
    29  -2.50000  -5.00000  -0.75000   0.50000   90.00000   0.00000   0.00100    28   29   30    102
    30  -2.50000  -5.00000  -0.25000   0.50000   90.00000   0.00000   0.00100    29   30   31    102
    31  -2.50000  -5.00000   0.25000   0.50000   90.00000   0.00000   0.00100    30   31   32    102
    32  -2.50000  -5.00000   0.75000   0.50000   90.00000   0.00000   0.00100    31   32   33    102
    33  -2.50000  -5.00000   1.25000   0.50000   90.00000   0.00000   0.00100    32   33   34    102
    34  -2.50000  -5.00000   1.75000   0.50000   90.00000   0.00000   0.00100    33   34   35    102
    35  -2.50000  -5.00000   2.25000   0.50000   90.00000   0.00000   0.00100    34   35   36    102
    36  -2.50000  -5.00000   2.75000   0.50000   90.00000   0.00000   0.00100    35   36   37    102
    37  -2.50000  -5.00000   3.25000   0.50000   90.00000   0.00000   0.00100    36   37   38    102
    38  -2.50000  -5.00000   3.75000   0.50000   90.00000   0.00000   0.00100    37   38   39    102
    39  -2.50000  -5.00000   4.25000   0.50000   90.00000   0.00000   0.00100    38   39   40    102
    40  -2.50000  -5.00000   4.75000   0.50000   90.00000   0.00000   0.00100    39   40    0    102
    41   2.50000  -5.00000  -4.75000   0.50000   90.00000   0.00000   0.00100     0   41   42    103
    42   2.50000  -5.00000  -4.25000   0.50000   90.00000   0.00000   0.00100    41   42   43    103
    43   2.50000  -5.00000  -3.75000   0.50000   90.00000   0.00000   0.00100    42   43   44    103
    44   2.50000  -5.00000  -3.25000   0.50000   90.00000   0.00000   0.00100    43   44   45    103
    45   2.50000  -5.00000  -2.75000   0.50000   90.00000   0.00000   0.00100    44   45   46    103
    46   2.50000  -5.00000  -2.25000   0.50000   90.00000   0.00000   0.00100    45   46   47    103
    47   2.50000  -5.00000  -1.75000   0.50000   90.00000   0.00000   0.00100    46   47   48    103
    48   2.50000  -5.00000  -1.25000   0.50000   90.00000   0.00000   0.00100    47   48   49    103
    49   2.50000  -5.00000  -0.75000   0.50000   90.00000   0.00000   0.00100    48   49   50    103
    50   2.50000  -5.00000  -0.25000   0.50000   90.00000   0.00000   0.00100    49   50   51    103
    51   2.50000  -5.00000   0.25000   0.50000   90.00000   0.00000   0.00100    50   51   52    103
    52   2.50000  -5.00000   0.75000   0.50000   90.00000   0.00000   0.00100    51   52   53    103
    53   2.50000  -5.00000   1.25000   0.50000   90.00000   0.00000   0.00100    52   53   54    103
    54   2.50000  -5.00000   1.75000   0.50000   90.00000   0.00000   0.00100    53   54   55    103
    55   2.50000  -5.00000   2.25000   0.50000   90.00000   0.00000   0.00100    54   55   56    103
    56   2.50000  -5.00000   2.75000   0.50000   90.00000   0.00000   0.00100    55   56   57    103
    57   2.50000  -5.00000   3.25000   0.50000   90.00000   0.00000   0.00100    56   57   58    103
    58   2.50000  -5.00000   3.75000   0.50000   90.00000   0.00000   0.00100    57   58   59    103
    59   2.50000  -5.00000   4.25000   0.50000   90.00000   0.00000   0.00100    58   59   60    103
    60   2.50000  -5.00000   4.75000   0.50000   90.00000   0.00000   0.00100    59   60    0    103
    61   7.50000  -5.00000  -4.75000   0.50000   90.00000   0.00000   0.00100     0   61   62    104
    62   7.50000  -5.00000  -4.25000   0.50000   90.00000   0.00000   0.00100    61   62   63    104
    63   7.50000  -5.00000  -3.75000   0.50000   90.00000   0.00000   0.00100    62   63   64    104
    64   7.50000  -5.00000  -3.25000   0.50000   90.00000   0.00000   0.00100    63   64   65    104
    65   7.50000  -5.00000  -2.75000   0.50000   90.00000   0.00000   0.00100    64   65   66    104
    66   7.50000  -5.00000  -2.25000   0.50000   90.00000   0.00000   0.00100    65   66   67    104
    67   7.50000  -5.00000  -1.75000   0.50000   90.00000   0.00000   0.00100    66   67   68    104
    68   7.50000  -5.00000  -1.25000   0.50000   90.00000   0.00000   0.00100    67   68   69    104
    69   7.50000  -5.00000  -0.75000   0.50000   90.00000   0.00000   0.00100    68   69   70    104
    70   7.50000  -5.00000  -0.25000   0.50000   90.00000   0.00000   0.00100    69   70   71    104
    71   7.50000  -5.00000   0.25000   0.50000   90.00000   0.00000   0.00100    70   71   72    104
    72   7.50000  -5.00000   0.75000   0.50000   90.00000   0.00000   0.00100    71   72   73    104
    73   7.50000  -5.00000   1.25000   0.50000   90.00000   0.00000   0.00100    72   73   74    104
    74   7.50000  -5.00000   1.75000   0.50000   90.00000   0.00000   0.00100    73   74   75    104
    75   7.50000  -5.00000   2.25000   0.50000   90.00000   0.00000   0.00100    74   75   76    104
    76   7.50000  -5.00000   2.75000   0.50000   90.00000   0.00000   0.00100    75   76   77    104
    77   7.50000  -5.00000   3.25000   0.50000   90.00000   0.00000   0.00100    76   77   78    104
    78   7.50000  -5.00000   3.75000   0.50000   90.00000   0.00000   0.00100    77   78   79    104
    79   7.50000  -5.00000   4.25000   0.50000   90.00000   0.00000   0.00100    78   79   80    104
    80   7.50000  -5.00000   4.75000   0.50000   90.00000   0.00000   0.00100    79   80    0    104
    81  -7.50000   0.00000  -4.75000   0.50000   90.00000   0.00000   0.00100     0   81   82    201
    82  -7.50000   0.00000  -4.25000   0.50000   90.00000   0.00000   0.00100    81   82   83    201
    83  -7.50000   0.00000  -3.75000   0.50000   90.00000   0.00000   0.00100    82   83   84    201
    84  -7.50000   0.00000  -3.25000   0.50000   90.00000   0.00000   0.00100    83   84   85    201
    85  -7.50000   0.00000  -2.75000   0.50000   90.00000   0.00000   0.00100    84   85   86    201
    86  -7.50000   0.00000  -2.25000   0.50000   90.00000   0.00000   0.00100    85   86   87    201
    87  -7.50000   0.00000  -1.75000   0.50000   90.00000   0.00000   0.00100    86   87   88    201
    88  -7.50000   0.00000  -1.25000   0.50000   90.00000   0.00000   0.00100    87   88   89    201
    89  -7.50000   0.00000  -0.75000   0.50000   90.00000   0.00000   0.00100    88   89   90    201
    90  -7.50000   0.00000  -0.25000   0.50000   90.00000   0.00000   0.00100    89   90   91    201
    91  -7.50000   0.00000   0.25000   0.50000   90.00000   0.00000   0.00100    90   91   92    201
    92  -7.50000   0.00000   0.75000   0.50000   90.00000   0.00000   0.00100    91   92   93    201
    93  -7.50000   0.00000   1.25000   0.50000   90.00000   0.00000   0.00100    92   93   94    201
    94  -7.50000   0.00000   1.75000   0.50000   90.00000   0.00000   0.00100    93   94   95    201
    95  -7.50000   0.00000   2.25000   0.50000   90.00000   0.00000   0.00100    94   95   96    201
    96  -7.50000   0.00000   2.75000   0.50000   90.00000   0.00000   0.00100    95   96   97    201
    97  -7.50000   0.00000   3.25000   0.50000   90.00000   0.00000   0.00100    96   97   98    201
    98  -7.50000   0.00000   3.75000   0.50000   90.00000   0.00000   0.00100    97   98   99    201
    99  -7.50000   0.00000   4.25000   0.50000   90.00000   0.00000   0.00100    98   99  100    201
   100  -7.50000   0.00000   4.75000   0.50000   90.00000   0.00000   0.00100    99  100    0    201
   101  -2.50000   0.00000  -4.75000   0.50000   90.00000   0.00000   0.00100     0  101  102    202
   102  -2.50000   0.00000  -4.25000   0.50000   90.00000   0.00000   0.00100   101  102  103    202
   103  -2.50000   0.00000  -3.75000   0.50000   90.00000   0.00000   0.00100   102  103  104    202
   104  -2.50000   0.00000  -3.25000   0.50000   90.00000   0.00000   0.00100   103  104  105    202
   105  -2.50000   0.00000  -2.75000   0.50000   90.00000   0.00000   0.00100   104  105  106    202
   106  -2.50000   0.00000  -2.25000   0.50000   90.00000   0.00000   0.00100   105  106  107    202
   107  -2.50000   0.00000  -1.75000   0.50000   90.00000   0.00000   0.00100   106  107  108    202
   108  -2.50000   0.00000  -1.25000   0.50000   90.00000   0.00000   0.00100   107  108  109    202
   109  -2.50000   0.00000  -0.75000   0.50000   90.00000   0.00000   0.00100   108  109  110    202
   110  -2.50000   0.00000  -0.25000   0.50000   90.00000   0.00000   0.00100   109  110  111    202
   111  -2.50000   0.00000   0.25000   0.50000   90.00000   0.00000   0.00100   110  111  112    202
   112  -2.50000   0.00000   0.75000   0.50000   90.00000   0.00000   0.00100   111  112  113    202
   113  -2.50000   0.00000   1.25000   0.50000   90.00000   0.00000   0.00100   112  113  114    202
   114  -2.50000   0.00000   1.75000   0.50000   90.00000   0.00000   0.00100   113  114  115    202
   115  -2.50000   0.00000   2.25000   0.50000   90.00000   0.00000   0.00100   114  115  116    202
   116  -2.50000   0.00000   2.75000   0.50000   90.00000   0.00000   0.00100   115  116  117    202
   117  -2.50000   0.00000   3.25000   0.50000   90.00000   0.00000   0.00100   116  117  118    202
   118  -2.50000   0.00000   3.75000   0.50000   90.00000   0.00000   0.00100   117  118  119    202
   119  -2.50000   0.00000   4.25000   0.50000   90.00000   0.00000   0.00100   118  119  120    202
   120  -2.50000   0.00000   4.75000   0.50000   90.00000   0.00000   0.00100   119  120    0    202
   121   2.50000   0.00000  -4.75000   0.50000   90.00000   0.00000   0.00100     0  121  122    203
   122   2.50000   0.00000  -4.25000   0.50000   90.00000   0.00000   0.00100   121  122  123    203
   123   2.50000   0.00000  -3.75000   0.50000   90.00000   0.00000   0.00100   122  123  124    203
   124   2.50000   0.00000  -3.25000   0.50000   90.00000   0.00000   0.00100   123  124  125    203
   125   2.50000   0.00000  -2.75000   0.50000   90.00000   0.00000   0.00100   124  125  126    203
   126   2.50000   0.00000  -2.25000   0.50000   90.00000   0.00000   0.00100   125  126  127    203
   127   2.50000   0.00000  -1.75000   0.50000   90.00000   0.00000   0.00100   126  127  128    203
   128   2.50000   0.00000  -1.25000   0.50000   90.00000   0.00000   0.00100   127  128  129    203
   129   2.50000   0.00000  -0.75000   0.50000   90.00000   0.00000   0.00100   128  129  130    203
   130   2.50000   0.00000  -0.25000   0.50000   90.00000   0.00000   0.00100   129  130  131    203
   131   2.50000   0.00000   0.25000   0.50000   90.00000   0.00000   0.00100   130  131  132    203
   132   2.50000   0.00000   0.75000   0.50000   90.00000   0.00000   0.00100   131  132  133    203
   133   2.50000   0.00000   1.25000   0.50000   90.00000   0.00000   0.00100   132  133  134    203
   134   2.50000   0.00000   1.75000   0.50000   90.00000   0.00000   0.00100   133  134  135    203
   135   2.50000   0.00000   2.25000   0.50000   90.00000   0.00000   0.00100   134  135  136    203
   136   2.50000   0.00000   2.75000   0.50000   90.00000   0.00000   0.00100   135  136  137    203
   137   2.50000   0.00000   3.25000   0.50000   90.00000   0.00000   0.00100   136  137  138    203
   138   2.50000   0.00000   3.75000   0.50000   90.00000   0.00000   0.00100   137  138  139    203
   139   2.50000   0.00000   4.25000   0.50000   90.00000   0.00000   0.00100   138  139  140    203
   140   2.50000   0.00000   4.75000   0.50000   90.00000   0.00000   0.00100   139  140    0    203
   141   7.50000   0.00000  -4.75000   0.50000   90.00000   0.00000   0.00100     0  141  142    204
   142   7.50000   0.00000  -4.25000   0.50000   90.00000   0.00000   0.00100   141  142  143    204
   143   7.50000   0.00000  -3.75000   0.50000   90.00000   0.00000   0.00100   142  143  144    204
   144   7.50000   0.00000  -3.25000   0.50000   90.00000   0.00000   0.00100   143  144  145    204
   145   7.50000   0.00000  -2.75000   0.50000   90.00000   0.00000   0.00100   144  145  146    204
   146   7.50000   0.00000  -2.25000   0.50000   90.00000   0.00000   0.00100   145  146  147    204
   147   7.50000   0.00000  -1.75000   0.50000   90.00000   0.00000   0.00100   146  147  148    204
   148   7.50000   0.00000  -1.25000   0.50000   90.00000   0.00000   0.00100   147  148  149    204
   149   7.50000   0.00000  -0.75000   0.50000   90.00000   0.00000   0.00100   148  149  150    204
   150   7.50000   0.00000  -0.25000   0.50000   90.00000   0.00000   0.00100   149  150  151    204
   151   7.50000   0.00000   0.25000   0.50000   90.00000   0.00000   0.00100   150  151  152    204
   152   7.50000   0.00000   0.75000   0.50000   90.00000   0.00000   0.00100   151  152  153    204
   153   7.50000   0.00000   1.25000   0.50000   90.00000   0.00000   0.00100   152  153  154    204
   154   7.50000   0.00000   1.75000   0.50000   90.00000   0.00000   0.00100   153  154  155    204
   155   7.50000   0.00000   2.25000   0.50000   90.00000   0.00000   0.00100   154  155  156    204
   156   7.50000   0.00000   2.75000   0.50000   90.00000   0.00000   0.00100   155  156  157    204
   157   7.50000   0.00000   3.25000   0.50000   90.00000   0.00000   0.00100   156  157  158    204
   158   7.50000   0.00000   3.75000   0.50000   90.00000   0.00000   0.00100   157  158  159    204
   159   7.50000   0.00000   4.25000   0.50000   90.00000   0.00000   0.00100   158  159  160    204
   160   7.50000   0.00000   4.75000   0.50000   90.00000   0.00000   0.00100   159  160    0    204
   161  -7.50000   5.00000  -4.75000   0.50000   90.00000   0.00000   0.00100     0  161  162    301
   162  -7.50000   5.00000  -4.25000   0.50000   90.00000   0.00000   0.00100   161  162  163    301
   163  -7.50000   5.00000  -3.75000   0.50000   90.00000   0.00000   0.00100   162  163  164    301
   164  -7.50000   5.00000  -3.25000   0.50000   90.00000   0.00000   0.00100   163  164  165    301
   165  -7.50000   5.00000  -2.75000   0.50000   90.00000   0.00000   0.00100   164  165  166    301
   166  -7.50000   5.00000  -2.25000   0.50000   90.00000   0.00000   0.00100   165  166  167    301
   167  -7.50000   5.00000  -1.75000   0.50000   90.00000   0.00000   0.00100   166  167  168    301
   168  -7.50000   5.00000  -1.25000   0.50000   90.00000   0.00000   0.00100   167  168  169    301
   169  -7.50000   5.00000  -0.75000   0.50000   90.00000   0.00000   0.00100   168  169  170    301
   170  -7.50000   5.00000  -0.25000   0.50000   90.00000   0.00000   0.00100   169  170  171    301
   171  -7.50000   5.00000   0.25000   0.50000   90.00000   0.00000   0.00100   170  171  172    301
   172  -7.50000   5.00000   0.75000   0.50000   90.00000   0.00000   0.00100   171  172  173    301
   173  -7.50000   5.00000   1.25000   0.50000   90.00000   0.00000   0.00100   172  173  174    301
   174  -7.50000   5.00000   1.75000   0.50000   90.00000   0.00000   0.00100   173  174  175    301
   175  -7.50000   5.00000   2.25000   0.50000   90.00000   0.00000   0.00100   174  175  176    301
   176  -7.50000   5.00000   2.75000   0.50000   90.00000   0.00000   0.00100   175  176  177    301
   177  -7.50000   5.00000   3.25000   0.50000   90.00000   0.00000   0.00100   176  177  178    301
   178  -7.50000   5.00000   3.75000   0.50000   90.00000   0.00000   0.00100   177  178  179    301
   179  -7.50000   5.00000   4.25000   0.50000   90.00000   0.00000   0.00100   178  179  180    301
   180  -7.50000   5.00000   4.75000   0.50000   90.00000   0.00000   0.00100   179  180    0    301
   181  -2.50000   5.00000  -4.75000   0.50000   90.00000   0.00000   0.00100     0  181  182    302
   182  -2.50000   5.00000  -4.25000   0.50000   90.00000   0.00000   0.00100   181  182  183    302
   183  -2.50000   5.00000  -3.75000   0.50000   90.00000   0.00000   0.00100   182  183  184    302
   184  -2.50000   5.00000  -3.25000   0.50000   90.00000   0.00000   0.00100   183  184  185    302
   185  -2.50000   5.00000  -2.75000   0.50000   90.00000   0.00000   0.00100   184  185  186    302
   186  -2.50000   5.00000  -2.25000   0.50000   90.00000   0.00000   0.00100   185  186  187    302
   187  -2.50000   5.00000  -1.75000   0.50000   90.00000   0.00000   0.00100   186  187  188    302
   188  -2.50000   5.00000  -1.25000   0.50000   90.00000   0.00000   0.00100   187  188  189    302
   189  -2.50000   5.00000  -0.75000   0.50000   90.00000   0.00000   0.00100   188  189  190    302
   190  -2.50000   5.00000  -0.25000   0.50000   90.00000   0.00000   0.00100   189  190  191    302
   191  -2.50000   5.00000   0.25000   0.50000   90.00000   0.00000   0.00100   190  191  192    302
   192  -2.50000   5.00000   0.75000   0.50000   90.00000   0.00000   0.00100   191  192  193    302
   193  -2.50000   5.00000   1.25000   0.50000   90.00000   0.00000   0.00100   192  193  194    302
   194  -2.50000   5.00000   1.75000   0.50000   90.00000   0.00000   0.00100   193  194  195    302
   195  -2.50000   5.00000   2.25000   0.50000   90.00000   0.00000   0.00100   194  195  196    302
   196  -2.50000   5.00000   2.75000   0.50000   90.00000   0.00000   0.00100   195  196  197    302
   197  -2.50000   5.00000   3.25000   0.50000   90.00000   0.00000   0.00100   196  197  198    302
   198  -2.50000   5.00000   3.75000   0.50000   90.00000   0.00000   0.00100   197  198  199    302
   199  -2.50000   5.00000   4.25000   0.50000   90.00000   0.00000   0.00100   198  199  200    302
   200  -2.50000   5.00000   4.75000   0.50000   90.00000   0.00000   0.00100   199  200    0    302
   201   2.50000   5.00000  -4.75000   0.50000   90.00000   0.00000   0.00100     0  201  202    303
   202   2.50000   5.00000  -4.25000   0.50000   90.00000   0.00000   0.00100   201  202  203    303
   203   2.50000   5.00000  -3.75000   0.50000   90.00000   0.00000   0.00100   202  203  204    303
   204   2.50000   5.00000  -3.25000   0.50000   90.00000   0.00000   0.00100   203  204  205    303
   205   2.50000   5.00000  -2.75000   0.50000   90.00000   0.00000   0.00100   204  205  206    303
   206   2.50000   5.00000  -2.25000   0.50000   90.00000   0.00000   0.00100   205  206  207    303
   207   2.50000   5.00000  -1.75000   0.50000   90.00000   0.00000   0.00100   206  207  208    303
   208   2.50000   5.00000  -1.25000   0.50000   90.00000   0.00000   0.00100   207  208  209    303
   209   2.50000   5.00000  -0.75000   0.50000   90.00000   0.00000   0.00100   208  209  210    303
   210   2.50000   5.00000  -0.25000   0.50000   90.00000   0.00000   0.00100   209  210  211    303
   211   2.50000   5.00000   0.25000   0.50000   90.00000   0.00000   0.00100   210  211  212    303
   212   2.50000   5.00000   0.75000   0.50000   90.00000   0.00000   0.00100   211  212  213    303
   213   2.50000   5.00000   1.25000   0.50000   90.00000   0.00000   0.00100   212  213  214    303
   214   2.50000   5.00000   1.75000   0.50000   90.00000   0.00000   0.00100   213  214  215    303
   215   2.50000   5.00000   2.25000   0.50000   90.00000   0.00000   0.00100   214  215  216    303
   216   2.50000   5.00000   2.75000   0.50000   90.00000   0.00000   0.00100   215  216  217    303
   217   2.50000   5.00000   3.25000   0.50000   90.00000   0.00000   0.00100   216  217  218    303
   218   2.50000   5.00000   3.75000   0.50000   90.00000   0.00000   0.00100   217  218  219    303
   219   2.50000   5.00000   4.25000   0.50000   90.00000   0.00000   0.00100   218  219  220    303
   220   2.50000   5.00000   4.75000   0.50000   90.00000   0.00000   0.00100   219  220    0    303
   221   7.50000   5.00000  -4.75000   0.50000   90.00000   0.00000   0.00100     0  221  222    304
   222   7.50000   5.00000  -4.25000   0.50000   90.00000   0.00000   0.00100   221  222  223    304
   223   7.50000   5.00000  -3.75000   0.50000   90.00000   0.00000   0.00100   222  223  224    304
   224   7.50000   5.00000  -3.25000   0.50000   90.00000   0.00000   0.00100   223  224  225    304
   225   7.50000   5.00000  -2.75000   0.50000   90.00000   0.00000   0.00100   224  225  226    304
   226   7.50000   5.00000  -2.25000   0.50000   90.00000   0.00000   0.00100   225  226  227    304
   227   7.50000   5.00000  -1.75000   0.50000   90.00000   0.00000   0.00100   226  227  228    304
   228   7.50000   5.00000  -1.25000   0.50000   90.00000   0.00000   0.00100   227  228  229    304
   229   7.50000   5.00000  -0.75000   0.50000   90.00000   0.00000   0.00100   228  229  230    304
   230   7.50000   5.00000  -0.25000   0.50000   90.00000   0.00000   0.00100   229  230  231    304
   231   7.50000   5.00000   0.25000   0.50000   90.00000   0.00000   0.00100   230  231  232    304
   232   7.50000   5.00000   0.75000   0.50000   90.00000   0.00000   0.00100   231  232  233    304
   233   7.50000   5.00000   1.25000   0.50000   90.00000   0.00000   0.00100   232  233  234    304
   234   7.50000   5.00000   1.75000   0.50000   90.00000   0.00000   0.00100   233  234  235    304
   235   7.50000   5.00000   2.25000   0.50000   90.00000   0.00000   0.00100   234  235  236    304
   236   7.50000   5.00000   2.75000   0.50000   90.00000   0.00000   0.00100   235  236  237    304
   237   7.50000   5.00000   3.25000   0.50000   90.00000   0.00000   0.00100   236  237  238    304
   238   7.50000   5.00000   3.75000   0.50000   90.00000   0.00000   0.00100   237  238  239    304
   239   7.50000   5.00000   4.25000   0.50000   90.00000   0.00000   0.00100   238  239  240    304
   240   7.50000   5.00000   4.75000   0.50000   90.00000   0.00000   0.00100   239  240    0    304






 ***** DATA CARD NO.  1   GN  -1     0     0     0  1.00000E+01  1.00000E-02  0.00000E+00  0.00000E+00  0.00000E+00  0.00000E+00
 ***** DATA CARD NO.  2   FR   0     0     0     0  1.50000E+02  0.00000E+00  0.00000E+00  0.00000E+00  0.00000E+00  0.00000E+00
 ***** DATA CARD NO.  3   EX   0   101    10     0  1.00000E-09  0.00000E+00  0.00000E+00  0.00000E+00  0.00000E+00  0.00000E+00
 ***** DATA CARD NO.  4   EX   0   102    10     0  1.00000E-09  0.00000E+00  0.00000E+00  0.00000E+00  0.00000E+00  0.00000E+00
 ***** DATA CARD NO.  5   EX   0   103    10     0  1.00000E-09  0.00000E+00  0.00000E+00  0.00000E+00  0.00000E+00  0.00000E+00
 ***** DATA CARD NO.  6   EX   0   104    10     0  1.00000E-09  0.00000E+00  0.00000E+00  0.00000E+00  0.00000E+00  0.00000E+00
 ***** DATA CARD NO.  7   EX   0   201    10     0  1.00000E-09  0.00000E+00  0.00000E+00  0.00000E+00  0.00000E+00  0.00000E+00
 ***** DATA CARD NO.  8   EX   0   202    10     0  1.00000E-09  0.00000E+00  0.00000E+00  0.00000E+00  0.00000E+00  0.00000E+00
 ***** DATA CARD NO.  9   EX   0   203    10     0  1.00000E-09  0.00000E+00  0.00000E+00  0.00000E+00  0.00000E+00  0.00000E+00
 ***** DATA CARD NO. 10   EX   0   204    10     0  1.00000E-09  0.00000E+00  0.00000E+00  0.00000E+00  0.00000E+00  0.00000E+00
 ***** DATA CARD NO. 11   EX   0   301    10     0 -1.05430E-03 -4.14980E-03  0.00000E+00  0.00000E+00  0.00000E+00  0.00000E+00
 ***** DATA CARD NO. 12   EX   0   302    10     0  1.00000E-09  0.00000E+00  0.00000E+00  0.00000E+00  0.00000E+00  0.00000E+00
 ***** DATA CARD NO. 13   EX   0   303    10     0  1.00000E-09  0.00000E+00  0.00000E+00  0.00000E+00  0.00000E+00  0.00000E+00
 ***** DATA CARD NO. 14   EX   0   304    10     0  1.00000E-09  0.00000E+00  0.00000E+00  0.00000E+00  0.00000E+00  0.00000E+00
 ***** DATA CARD NO. 15   RP   0    19    72  1010  0.00000E+00  0.00000E+00  5.00000E+00  5.00000E+00  0.00000E+00  0.00000E+00




                                 - - - - - - FREQUENCY - - - - - -

                                    FREQUENCY= 1.5000E+02 MHZ
                                    WAVELENGTH= 1.9987E+00 METERS




                    APPROXIMATE INTEGRATION EMPLOYED FOR SEGMENTS MORE THAN   1.000 WAVELENGTHS APART



                               - - - STRUCTURE IMPEDANCE LOADING - - -

                                   THIS STRUCTURE IS NOT LOADED



                                  - - - ANTENNA ENVIRONMENT - - -

                                            FREE SPACE



                                - - - MATRIX TIMING - - -

                        FILL=    0.031 SEC.,  FACTOR=    0.031 SEC.



                                          - - - ANTENNA INPUT PARAMETERS - - -

   TAG   SEG.    VOLTAGE (VOLTS)         CURRENT (AMPS)         IMPEDANCE (OHMS)        ADMITTANCE (MHOS)      POWER
   NO.   NO.    REAL        IMAG.       REAL        IMAG.       REAL        IMAG.       REAL        IMAG.     (WATTS)
   101    10 1.00000E-09 0.00000E+00-5.81072E-09-9.15106E-08-6.91098E-04 1.08838E-02-5.81072E+00-9.15106E+01-2.90536E-18
   102    30 1.00000E-09 0.00000E+00-1.24550E-07 5.42284E-08-6.74944E-03-2.93868E-03-1.24550E+02 5.42284E+01-6.22748E-17
   103    50 1.00000E-09 0.00000E+00 5.68446E-08 1.21020E-07 3.17972E-03-6.76952E-03 5.68446E+01 1.21020E+02 2.84223E-17
   104    70 1.00000E-09 0.00000E+00-9.64901E-08 9.25437E-09-1.02693E-02-9.84929E-04-9.64901E+01 9.25437E+00-4.82450E-17
   201    90 1.00000E-09 0.00000E+00 1.40432E-07 7.14934E-08 5.65518E-03-2.87903E-03 1.40432E+02 7.14934E+01 7.02160E-17
   202   110 1.00000E-09 0.00000E+00 8.80069E-08-4.03121E-07 5.16921E-04 2.36779E-03 8.80069E+01-4.03121E+02 4.40034E-17
   203   130 1.00000E-09 0.00000E+00-1.09259E-07 4.38707E-08-7.88181E-03-3.16478E-03-1.09259E+02 4.38707E+01-5.46295E-17
   204   150 1.00000E-09 0.00000E+00-1.50206E-07 4.04706E-08-6.20694E-03-1.67236E-03-1.50206E+02 4.04706E+01-7.51029E-17
   301   170-1.05430E-03-4.14980E-03-8.83488E-06-1.08410E-05 2.77646E+02 1.29017E+02 2.96210E-03-1.37644E-03 2.71512E-08
   302   190 1.00000E-09 0.00000E+00 1.47046E-07 7.51605E-08 5.39191E-03-2.75600E-03 1.47046E+02 7.51605E+01 7.35230E-17
   303   210 1.00000E-09 0.00000E+00-6.71986E-09-9.06233E-08-8.13765E-04 1.09743E-02-6.71986E+00-9.06233E+01-3.35993E-18
   304   230 1.00000E-09 0.00000E+00 8.59325E-08-1.59947E-07 2.60659E-03 4.85166E-03 8.59325E+01-1.59947E+02 4.29663E-17



                             - - - CURRENTS AND LOCATION - - -

                                 DISTANCES IN WAVELENGTHS


  SEG.  TAG    COORD. OF SEG. CENTER     SEG.            - - - CURRENT (AMPS) - - -
  NO.   NO.     X        Y        Z      LENGTH     REAL        IMAG.       MAG.        PHASE
     1  101  -3.7525  -2.5017  -2.3766  0.25017  -1.5901E-08 -1.2528E-07  1.2628E-07  -97.234
     2  101  -3.7525  -2.5017  -2.1264  0.25017   1.4066E-08 -1.0305E-07  1.0400E-07  -82.227
     3  101  -3.7525  -2.5017  -1.8763  0.25017   9.3111E-08  1.3791E-07  1.6640E-07   55.975
     4  101  -3.7525  -2.5017  -1.6261  0.25017   8.6195E-08  1.4623E-07  1.6975E-07   59.483
     5  101  -3.7525  -2.5017  -1.3759  0.25017   1.3489E-09 -7.3854E-08  7.3866E-08  -88.954
     6  101  -3.7525  -2.5017  -1.1258  0.25017  -6.4093E-09 -1.0998E-07  1.1016E-07  -93.335
     7  101  -3.7525  -2.5017  -0.8756  0.25017   7.5833E-08  5.2531E-08  9.2250E-08   34.711
     8  101  -3.7525  -2.5017  -0.6254  0.25017   9.5822E-08  4.2751E-08  1.0493E-07   24.044
     9  101  -3.7525  -2.5017  -0.3753  0.25017   2.4751E-08 -1.2903E-07  1.3138E-07  -79.141
    10  101  -3.7525  -2.5017  -0.1251  0.25017  -5.8107E-09 -9.1511E-08  9.1695E-08  -93.633
    11  101  -3.7525  -2.5017   0.1251  0.25017   2.8528E-08  1.3130E-07  1.3436E-07   77.741
    12  101  -3.7525  -2.5017   0.3753  0.25017   1.7461E-08  1.4779E-07  1.4882E-07   83.262
    13  101  -3.7525  -2.5017   0.6254  0.25017  -3.3950E-08 -4.1300E-08  5.3463E-08 -129.421
    14  101  -3.7525  -2.5017   0.8756  0.25017  -7.5798E-09 -6.4444E-08  6.4888E-08  -96.708
    15  101  -3.7525  -2.5017   1.1258  0.25017   6.8254E-08  7.0045E-08  9.7800E-08   45.742
    16  101  -3.7525  -2.5017   1.3759  0.25017   4.2288E-08  5.9073E-09  4.2699E-08    7.952
    17  101  -3.7525  -2.5017   1.6261  0.25017  -7.0876E-08 -2.0653E-07  2.1835E-07 -108.941
    18  101  -3.7525  -2.5017   1.8763  0.25017  -1.0200E-07 -1.6231E-07  1.9170E-07 -122.146
    19  101  -3.7525  -2.5017   2.1264  0.25017  -2.7512E-08  9.9647E-08  1.0338E-07  105.434
    20  101  -3.7525  -2.5017   2.3766  0.25017   1.1782E-08  1.2165E-07  1.2221E-07   84.468
    21  102  -1.2508  -2.5017  -2.3766  0.25017  -1.4612E-07  5.7157E-08  1.5690E-07  158.636
    22  102  -1.2508  -2.5017  -2.1264  0.25017  -1.7313E-07  3.9368E-08  1.7755E-07  167.189
    23  102  -1.2508  -2.5017  -1.8763  0.25017   5.4770E-08 -6.9618E-08  8.8580E-08  -51.807
    24  102  -1.2508  -2.5017  -1.6261  0.25017   7.4868E-08 -5.9075E-08  9.5369E-08  -38.275
    25  102  -1.2508  -2.5017  -1.3759  0.25017  -1.2484E-07  5.8732E-08  1.3797E-07  154.805
    26  102  -1.2508  -2.5017  -1.1258  0.25017  -1.2210E-07  9.7980E-08  1.5655E-07  141.255
    27  102  -1.2508  -2.5017  -0.8756  0.25017   7.6535E-08  5.5404E-08  9.4484E-08   35.901
    28  102  -1.2508  -2.5017  -0.6254  0.25017   5.8017E-08  7.4400E-08  9.4347E-08   52.053
    29  102  -1.2508  -2.5017  -0.3753  0.25017  -1.5116E-07  1.2299E-07  1.9487E-07  140.868
    30  102  -1.2508  -2.5017  -0.1251  0.25017  -1.2455E-07  5.4228E-08  1.3584E-07  156.472
    31  102  -1.2508  -2.5017   0.1251  0.25017   1.0922E-07 -7.6857E-08  1.3355E-07  -35.134
    32  102  -1.2508  -2.5017   0.3753  0.25017   1.0773E-07 -9.3532E-08  1.4267E-07  -40.964
    33  102  -1.2508  -2.5017   0.6254  0.25017  -1.1661E-07 -2.3171E-08  1.1889E-07 -168.762
    34  102  -1.2508  -2.5017   0.8756  0.25017  -1.2287E-07 -1.7091E-08  1.2406E-07 -172.081
    35  102  -1.2508  -2.5017   1.1258  0.25017   9.1977E-08 -3.6099E-08  9.8807E-08  -21.429
    36  102  -1.2508  -2.5017   1.3759  0.25017   1.0888E-07  5.0152E-08  1.1988E-07   24.731
    37  102  -1.2508  -2.5017   1.6261  0.25017  -6.0504E-08  1.5083E-07  1.6251E-07  111.858
    38  102  -1.2508  -2.5017   1.8763  0.25017  -4.4769E-09  8.7637E-08  8.7751E-08   92.924
    39  102  -1.2508  -2.5017   2.1264  0.25017   2.2624E-07 -5.5012E-08  2.3283E-07  -13.667
    40  102  -1.2508  -2.5017   2.3766  0.25017   1.6512E-07 -5.6463E-08  1.7451E-07  -18.878
    41  103   1.2508  -2.5017  -2.3766  0.25017   5.8392E-08  1.5119E-07  1.6207E-07   68.882
    42  103   1.2508  -2.5017  -2.1264  0.25017   6.8905E-08  1.5577E-07  1.7033E-07   66.138
    43  103   1.2508  -2.5017  -1.8763  0.25017  -2.5629E-08 -1.1796E-07  1.2072E-07 -102.258
    44  103   1.2508  -2.5017  -1.6261  0.25017  -2.8376E-08 -1.3345E-07  1.3643E-07 -102.004
    45  103   1.2508  -2.5017  -1.3759  0.25017   6.9196E-08  1.1114E-07  1.3092E-07   58.093
    46  103   1.2508  -2.5017  -1.1258  0.25017   8.5226E-08  1.0267E-07  1.3343E-07   50.303
    47  103   1.2508  -2.5017  -0.8756  0.25017   1.3604E-08 -1.5401E-07  1.5461E-07  -84.952
    48  103   1.2508  -2.5017  -0.6254  0.25017   1.9015E-08 -1.4807E-07  1.4929E-07  -82.682
    49  103   1.2508  -2.5017  -0.3753  0.25017   8.8479E-08  1.1420E-07  1.4446E-07   52.232
    50  103   1.2508  -2.5017  -0.1251  0.25017   5.6845E-08  1.2102E-07  1.3371E-07   64.840
    51  103   1.2508  -2.5017   0.1251  0.25017  -4.9033E-08 -1.2465E-07  1.3395E-07 -111.473
    52  103   1.2508  -2.5017   0.3753  0.25017  -5.3626E-08 -1.1503E-07  1.2691E-07 -114.995
    53  103   1.2508  -2.5017   0.6254  0.25017   2.0885E-08  1.4314E-07  1.4465E-07   81.698
    54  103   1.2508  -2.5017   0.8756  0.25017   8.6252E-09  1.3737E-07  1.3764E-07   86.407
    55  103   1.2508  -2.5017   1.1258  0.25017  -5.7434E-08 -1.2901E-07  1.4122E-07 -113.998
    56  103   1.2508  -2.5017   1.3759  0.25017  -1.8026E-08 -1.4308E-07  1.4422E-07  -97.180
    57  103   1.2508  -2.5017   1.6261  0.25017   6.8176E-08  9.3781E-08  1.1594E-07   53.984
    58  103   1.2508  -2.5017   1.8763  0.25017   2.2500E-08  7.1959E-08  7.5395E-08   72.637
    59  103   1.2508  -2.5017   2.1264  0.25017  -8.8968E-08 -1.9346E-07  2.1294E-07 -114.696
    60  103   1.2508  -2.5017   2.3766  0.25017  -6.2540E-08 -1.6473E-07  1.7620E-07 -110.790
    61  104   3.7525  -2.5017  -2.3766  0.25017  -1.2966E-07  2.6018E-08  1.3224E-07  168.653
    62  104   3.7525  -2.5017  -2.1264  0.25017  -1.2015E-07  5.8692E-09  1.2029E-07  177.203
    63  104   3.7525  -2.5017  -1.8763  0.25017   1.4584E-07 -5.6881E-08  1.5654E-07  -21.307
    64  104   3.7525  -2.5017  -1.6261  0.25017   1.7704E-07 -3.4091E-08  1.8029E-07  -10.899
    65  104   3.7525  -2.5017  -1.3759  0.25017  -4.1170E-08  3.6989E-08  5.5346E-08  138.062
    66  104   3.7525  -2.5017  -1.1258  0.25017  -4.0020E-08  3.0778E-08  5.0487E-08  142.437
    67  104   3.7525  -2.5017  -0.8756  0.25017   1.8863E-07 -1.6254E-08  1.8933E-07   -4.925
    68  104   3.7525  -2.5017  -0.6254  0.25017   1.7780E-07  7.9323E-09  1.7798E-07    2.554
    69  104   3.7525  -2.5017  -0.3753  0.25017  -7.5472E-08  5.2806E-08  9.2111E-08  145.021
    70  104   3.7525  -2.5017  -0.1251  0.25017  -9.6490E-08  9.2544E-09  9.6933E-08  174.522
    71  104   3.7525  -2.5017   0.1251  0.25017   1.2429E-07 -5.8224E-08  1.3725E-07  -25.101
    72  104   3.7525  -2.5017   0.3753  0.25017   1.1353E-07 -3.4592E-08  1.1868E-07  -16.946
    73  104   3.7525  -2.5017   0.6254  0.25017  -1.3873E-07  1.3035E-08  1.3935E-07  174.633
    74  104   3.7525  -2.5017   0.8756  0.25017  -1.5514E-07 -2.5907E-08  1.5729E-07 -170.519
    75  104   3.7525  -2.5017   1.1258  0.25017   8.1130E-08 -7.2763E-08  1.0898E-07  -41.888
    76  104   3.7525  -2.5017   1.3759  0.25017   9.6789E-08 -1.7382E-08  9.8337E-08  -10.181
    77  104   3.7525  -2.5017   1.6261  0.25017  -1.2358E-07  4.4151E-08  1.3123E-07  160.340
    78  104   3.7525  -2.5017   1.8763  0.25017  -1.0724E-07 -1.2181E-08  1.0793E-07 -173.520
    79  104   3.7525  -2.5017   2.1264  0.25017   1.5036E-07 -8.5946E-08  1.7319E-07  -29.753
    80  104   3.7525  -2.5017   2.3766  0.25017   1.4679E-07 -4.2168E-08  1.5273E-07  -16.027
    81  201  -3.7525   0.0000  -2.3766  0.25017   1.5932E-07  1.2375E-07  2.0173E-07   37.839
    82  201  -3.7525   0.0000  -2.1264  0.25017   1.9881E-08 -7.4159E-09  2.1219E-08  -20.457
    83  201  -3.7525   0.0000  -1.8763  0.25017  -2.9633E-07 -3.2043E-07  4.3645E-07 -132.763
    84  201  -3.7525   0.0000  -1.6261  0.25017  -1.0025E-07 -1.6027E-07  1.8904E-07 -122.025
    85  201  -3.7525   0.0000  -1.3759  0.25017   2.3911E-07  3.1403E-07  3.9470E-07   52.713
    86  201  -3.7525   0.0000  -1.1258  0.25017   4.5360E-09  3.6770E-07  3.6772E-07   89.293
    87  201  -3.7525   0.0000  -0.8756  0.25017  -3.8202E-07 -1.8439E-08  3.8247E-07 -177.237
    88  201  -3.7525   0.0000  -0.6254  0.25017  -1.1498E-07 -1.7829E-07  2.1215E-07 -122.818
    89  201  -3.7525   0.0000  -0.3753  0.25017   3.6993E-07  1.9691E-08  3.7045E-07    3.047
    90  201  -3.7525   0.0000  -0.1251  0.25017   1.4043E-07  7.1493E-08  1.5758E-07   26.980
    91  201  -3.7525   0.0000   0.1251  0.25017  -4.4472E-07 -9.3168E-08  4.5437E-07 -168.168
    92  201  -3.7525   0.0000   0.3753  0.25017  -3.6274E-07 -3.7234E-08  3.6465E-07 -174.139
    93  201  -3.7525   0.0000   0.6254  0.25017   1.8590E-07  1.8867E-07  2.6487E-07   45.425
    94  201  -3.7525   0.0000   0.8756  0.25017   2.1594E-07  8.1735E-08  2.3089E-07   20.732
    95  201  -3.7525   0.0000   1.1258  0.25017  -1.8085E-07 -2.4500E-07  3.0452E-07 -126.434
    96  201  -3.7525   0.0000   1.3759  0.25017  -1.1930E-07 -1.5462E-07  1.9530E-07 -127.653
    97  201  -3.7525   0.0000   1.6261  0.25017   3.1950E-07  2.7728E-07  4.2304E-07   40.954
    98  201  -3.7525   0.0000   1.8763  0.25017   2.9098E-07  2.8832E-07  4.0963E-07   44.737
    99  201  -3.7525   0.0000   2.1264  0.25017  -1.5189E-07 -1.6336E-07  2.2307E-07 -132.916
   100  201  -3.7525   0.0000   2.3766  0.25017  -1.9125E-07 -2.3577E-07  3.0358E-07 -129.047
   101  202  -1.2508   0.0000  -2.3766  0.25017   1.5539E-07 -4.9517E-07  5.1898E-07  -72.578
   102  202  -1.2508   0.0000  -2.1264  0.25017   1.4592E-07 -5.4814E-07  5.6723E-07  -75.094
   103  202  -1.2508   0.0000  -1.8763  0.25017  -1.2555E-07  3.8185E-07  4.0196E-07  108.201
   104  202  -1.2508   0.0000  -1.6261  0.25017  -1.7520E-07  5.3242E-07  5.6050E-07  108.215
   105  202  -1.2508   0.0000  -1.3759  0.25017  -9.0260E-09 -2.8871E-07  2.8885E-07  -91.791
   106  202  -1.2508   0.0000  -1.1258  0.25017  -1.5228E-08 -4.0760E-07  4.0788E-07  -92.140
   107  202  -1.2508   0.0000  -0.8756  0.25017  -1.5155E-07  3.9992E-07  4.2767E-07  110.754
   108  202  -1.2508   0.0000  -0.6254  0.25017  -5.7204E-08  5.2653E-07  5.2963E-07   96.200
   109  202  -1.2508   0.0000  -0.3753  0.25017   1.6467E-07 -2.5539E-07  3.0387E-07  -57.187
   110  202  -1.2508   0.0000  -0.1251  0.25017   8.8007E-08 -4.0312E-07  4.1262E-07  -77.685
   111  202  -1.2508   0.0000   0.1251  0.25017  -2.0886E-07  2.8328E-07  3.5195E-07  126.401
   112  202  -1.2508   0.0000   0.3753  0.25017  -2.4636E-07  3.2313E-07  4.0633E-07  127.323
   113  202  -1.2508   0.0000   0.6254  0.25017  -4.2946E-09 -3.9195E-07  3.9198E-07  -90.628
   114  202  -1.2508   0.0000   0.8756  0.25017   9.1781E-08 -3.6187E-07  3.7333E-07  -75.768
   115  202  -1.2508   0.0000   1.1258  0.25017  -1.3963E-08  4.4589E-07  4.4611E-07   91.794
   116  202  -1.2508   0.0000   1.3759  0.25017   2.1959E-08  4.4698E-07  4.4752E-07   87.187
   117  202  -1.2508   0.0000   1.6261  0.25017   1.9393E-07 -3.8767E-07  4.3347E-07  -63.424
   118  202  -1.2508   0.0000   1.8763  0.25017   1.4564E-07 -3.9992E-07  4.2561E-07  -69.989
   119  202  -1.2508   0.0000   2.1264  0.25017  -8.7724E-08  4.6884E-07  4.7697E-07  100.598
   120  202  -1.2508   0.0000   2.3766  0.25017  -1.0197E-07  4.8371E-07  4.9435E-07  101.904
   121  203   1.2508   0.0000  -2.3766  0.25017  -1.2948E-07  4.7044E-08  1.3776E-07  160.033
   122  203   1.2508   0.0000  -2.1264  0.25017  -1.5714E-07  2.8057E-08  1.5962E-07  169.876
   123  203   1.2508   0.0000  -1.8763  0.25017   4.0457E-08 -6.1972E-08  7.4009E-08  -56.863
   124  203   1.2508   0.0000  -1.6261  0.25017   6.0338E-08 -4.9099E-08  7.7791E-08  -39.137
   125  203   1.2508   0.0000  -1.3759  0.25017  -1.0998E-07  5.2145E-08  1.2172E-07  154.633
   126  203   1.2508   0.0000  -1.1258  0.25017  -1.0603E-07  9.1709E-08  1.4019E-07  139.142
   127  203   1.2508   0.0000  -0.8756  0.25017   6.4228E-08  6.6910E-08  9.2748E-08   46.172
   128  203   1.2508   0.0000  -0.6254  0.25017   4.4138E-08  8.4418E-08  9.5261E-08   62.397
   129  203   1.2508   0.0000  -0.3753  0.25017  -1.3739E-07  1.1278E-07  1.7775E-07  140.618
   130  203   1.2508   0.0000  -0.1251  0.25017  -1.0926E-07  4.3871E-08  1.1774E-07  158.123
   131  203   1.2508   0.0000   0.1251  0.25017   9.7149E-08 -6.6971E-08  1.1800E-07  -34.581
   132  203   1.2508   0.0000   0.3753  0.25017   9.4233E-08 -8.2823E-08  1.2546E-07  -41.312
   133  203   1.2508   0.0000   0.6254  0.25017  -1.0282E-07 -3.3051E-08  1.0800E-07 -162.180
   134  203   1.2508   0.0000   0.8756  0.25017  -1.0799E-07 -2.9792E-08  1.1202E-07 -164.577
   135  203   1.2508   0.0000   1.1258  0.25017   7.8983E-08 -3.0707E-08  8.4742E-08  -21.245
   136  203   1.2508   0.0000   1.3759  0.25017   9.4957E-08  5.7392E-08  1.1095E-07   31.149
   137  203   1.2508   0.0000   1.6261  0.25017  -4.4946E-08  1.4150E-07  1.4847E-07  107.622
   138  203   1.2508   0.0000   1.8763  0.25017   1.3498E-08  7.9440E-08  8.0579E-08   80.357
   139  203   1.2508   0.0000   2.1264  0.25017   2.1407E-07 -4.4104E-08  2.1856E-07  -11.642
   140  203   1.2508   0.0000   2.3766  0.25017   1.4945E-07 -4.5989E-08  1.5637E-07  -17.104
   141  204   3.7525   0.0000  -2.3766  0.25017  -1.9786E-07  4.8603E-08  2.0374E-07  166.199
   142  204   3.7525   0.0000  -2.1264  0.25017  -1.9242E-07  4.8613E-08  1.9847E-07  165.822
   143  204   3.7525   0.0000  -1.8763  0.25017   1.8638E-07 -3.6420E-08  1.8990E-07  -11.057
   144  204   3.7525   0.0000  -1.6261  0.25017   2.1187E-07 -2.4226E-08  2.1325E-07   -6.523
   145  204   3.7525   0.0000  -1.3759  0.25017  -1.2066E-07  7.1150E-08  1.4007E-07  149.472
   146  204   3.7525   0.0000  -1.1258  0.25017  -1.1353E-07  7.5974E-08  1.3661E-07  146.211
   147  204   3.7525   0.0000  -0.8756  0.25017   2.3284E-07  7.2384E-09  2.3295E-07    1.781
   148  204   3.7525   0.0000  -0.6254  0.25017   2.2540E-07  2.2288E-08  2.2650E-07    5.647
   149  204   3.7525   0.0000  -0.3753  0.25017  -1.3353E-07  8.4990E-08  1.5828E-07  147.524
   150  204   3.7525   0.0000  -0.1251  0.25017  -1.5021E-07  4.0471E-08  1.5556E-07  164.921
   151  204   3.7525   0.0000   0.1251  0.25017   1.7647E-07 -5.7481E-08  1.8560E-07  -18.042
   152  204   3.7525   0.0000   0.3753  0.25017   1.5796E-07 -4.5249E-08  1.6431E-07  -15.985
   153  204   3.7525   0.0000   0.6254  0.25017  -1.9991E-07  2.2128E-08  2.0113E-07  173.684
   154  204   3.7525   0.0000   0.8756  0.25017  -1.9985E-07 -1.1766E-08  2.0019E-07 -176.630
   155  204   3.7525   0.0000   1.1258  0.25017   1.5758E-07 -7.8114E-08  1.7587E-07  -26.369
   156  204   3.7525   0.0000   1.3759  0.25017   1.7306E-07 -2.4134E-08  1.7474E-07   -7.939
   157  204   3.7525   0.0000   1.6261  0.25017  -1.5591E-07  5.6671E-08  1.6589E-07  160.025
   158  204   3.7525   0.0000   1.8763  0.25017  -1.3102E-07 -5.3149E-09  1.3113E-07 -177.677
   159  204   3.7525   0.0000   2.1264  0.25017   2.3809E-07 -1.0702E-07  2.6103E-07  -24.203
   160  204   3.7525   0.0000   2.3766  0.25017   2.1709E-07 -5.9774E-08  2.2517E-07  -15.394
   161  301  -3.7525   2.5017  -2.3766  0.25017  -1.0521E-05 -9.7104E-06  1.4317E-05 -137.293
   162  301  -3.7525   2.5017  -2.1264  0.25017  -7.9586E-06 -9.7746E-06  1.2605E-05 -129.153
   163  301  -3.7525   2.5017  -1.8763  0.25017   1.1225E-05  8.9959E-06  1.4385E-05   38.710
   164  301  -3.7525   2.5017  -1.6261  0.25017   7.4585E-06  9.8252E-06  1.2335E-05   52.797
   165  301  -3.7525   2.5017  -1.3759  0.25017  -1.1484E-05 -8.7186E-06  1.4419E-05 -142.795
   166  301  -3.7525   2.5017  -1.1258  0.25017  -7.1950E-06 -9.9511E-06  1.2280E-05 -125.868
   167  301  -3.7525   2.5017  -0.8756  0.25017   1.1708E-05  8.6034E-06  1.4529E-05   36.310
   168  301  -3.7525   2.5017  -0.6254  0.25017   6.9148E-06  1.0232E-05  1.2350E-05   55.950
   169  301  -3.7525   2.5017  -0.3753  0.25017  -1.2146E-05 -8.6149E-06  1.4891E-05 -144.652
   170  301  -3.7525   2.5017  -0.1251  0.25017  -8.8349E-06 -1.0841E-05  1.3985E-05 -129.178
   171  301  -3.7525   2.5017   0.1251  0.25017   1.9513E-06  9.5786E-06  9.7753E-06   78.485
   172  301  -3.7525   2.5017   0.3753  0.25017   6.6061E-06  1.0291E-05  1.2229E-05   57.303
   173  301  -3.7525   2.5017   0.6254  0.25017  -2.3774E-06 -9.7194E-06  1.0006E-05 -103.745
   174  301  -3.7525   2.5017   0.8756  0.25017  -6.4920E-06 -1.0169E-05  1.2065E-05 -122.554
   175  301  -3.7525   2.5017   1.1258  0.25017   2.6809E-06  9.7488E-06  1.0111E-05   74.624
   176  301  -3.7525   2.5017   1.3759  0.25017   6.3549E-06  1.0196E-05  1.2014E-05   58.065
   177  301  -3.7525   2.5017   1.6261  0.25017  -2.9596E-06 -9.7643E-06  1.0203E-05 -106.862
   178  301  -3.7525   2.5017   1.8763  0.25017  -6.1220E-06 -1.0289E-05  1.1973E-05 -120.752
   179  301  -3.7525   2.5017   2.1264  0.25017   3.3929E-06  9.9283E-06  1.0492E-05   71.133
   180  301  -3.7525   2.5017   2.3766  0.25017   5.4098E-06  1.0639E-05  1.1936E-05   63.048
   181  302  -1.2508   2.5017  -2.3766  0.25017   1.6599E-07  1.2891E-07  2.1017E-07   37.832
   182  302  -1.2508   2.5017  -2.1264  0.25017   2.7114E-08 -1.7625E-09  2.7171E-08   -3.719
   183  302  -1.2508   2.5017  -1.8763  0.25017  -3.0137E-07 -3.2264E-07  4.4150E-07 -133.048
   184  302  -1.2508   2.5017  -1.6261  0.25017  -1.0725E-07 -1.6305E-07  1.9517E-07 -123.336
   185  302  -1.2508   2.5017  -1.3759  0.25017   2.4312E-07  3.1696E-07  3.9947E-07   52.510
   186  302  -1.2508   2.5017  -1.1258  0.25017   1.1655E-08  3.6873E-07  3.6892E-07   88.190
   187  302  -1.2508   2.5017  -0.8756  0.25017  -3.8262E-07 -2.4484E-08  3.8340E-07 -176.339
   188  302  -1.2508   2.5017  -0.6254  0.25017  -1.1541E-07 -1.8222E-07  2.1570E-07 -122.348
   189  302  -1.2508   2.5017  -0.3753  0.25017   3.7832E-07  2.4182E-08  3.7909E-07    3.657
   190  302  -1.2508   2.5017  -0.1251  0.25017   1.4705E-07  7.5160E-08  1.6514E-07   27.073
   191  302  -1.2508   2.5017   0.1251  0.25017  -4.5041E-07 -9.7580E-08  4.6086E-07 -167.776
   192  302  -1.2508   2.5017   0.3753  0.25017  -3.7071E-07 -4.1138E-08  3.7298E-07 -173.668
   193  302  -1.2508   2.5017   0.6254  0.25017   1.8686E-07  1.9292E-07  2.6858E-07   45.914
   194  302  -1.2508   2.5017   0.8756  0.25017   2.1768E-07  8.6366E-08  2.3419E-07   21.641
   195  302  -1.2508   2.5017   1.1258  0.25017  -1.8697E-07 -2.4749E-07  3.1018E-07 -127.069
   196  302  -1.2508   2.5017   1.3759  0.25017  -1.2314E-07 -1.5736E-07  1.9982E-07 -128.045
   197  302  -1.2508   2.5017   1.6261  0.25017   3.2656E-07  2.8047E-07  4.3047E-07   40.657
   198  302  -1.2508   2.5017   1.8763  0.25017   2.9691E-07  2.8957E-07  4.1474E-07   44.283
   199  302  -1.2508   2.5017   2.1264  0.25017  -1.5790E-07 -1.7008E-07  2.3207E-07 -132.874
   200  302  -1.2508   2.5017   2.3766  0.25017  -1.9744E-07 -2.4091E-07  3.1148E-07 -129.337
   201  303   1.2508   2.5017  -2.3766  0.25017  -2.2094E-08 -1.2875E-07  1.3063E-07  -99.737
   202  303   1.2508   2.5017  -2.1264  0.25017   9.4103E-09 -1.0802E-07  1.0843E-07  -85.021
   203  303   1.2508   2.5017  -1.8763  0.25017   9.9754E-08  1.3920E-07  1.7125E-07   54.374
   204  303   1.2508   2.5017  -1.6261  0.25017   9.0544E-08  1.5068E-07  1.7580E-07   58.999
   205  303   1.2508   2.5017  -1.3759  0.25017  -7.8480E-09 -7.2951E-08  7.3371E-08  -96.140
   206  303   1.2508   2.5017  -1.1258  0.25017  -1.7198E-08 -1.1100E-07  1.1232E-07  -98.808
   207  303   1.2508   2.5017  -0.8756  0.25017   7.7001E-08  5.4141E-08  9.4130E-08   35.112
   208  303   1.2508   2.5017  -0.6254  0.25017   1.0228E-07  4.5351E-08  1.1188E-07   23.912
   209  303   1.2508   2.5017  -0.3753  0.25017   2.5732E-08 -1.2832E-07  1.3087E-07  -78.661
   210  303   1.2508   2.5017  -0.1251  0.25017  -6.7199E-09 -9.0623E-08  9.0872E-08  -94.241
   211  303   1.2508   2.5017   0.1251  0.25017   3.0502E-08  1.3350E-07  1.3694E-07   77.130
   212  303   1.2508   2.5017   0.3753  0.25017   1.5882E-08  1.4768E-07  1.4853E-07   83.862
   213  303   1.2508   2.5017   0.6254  0.25017  -4.0748E-08 -4.4281E-08  6.0177E-08 -132.621
   214  303   1.2508   2.5017   0.8756  0.25017  -7.3264E-09 -6.5048E-08  6.5459E-08  -96.426
   215  303   1.2508   2.5017   1.1258  0.25017   7.9947E-08  7.2686E-08  1.0805E-07   42.277
   216  303   1.2508   2.5017   1.3759  0.25017   5.0348E-08  5.7713E-09  5.0677E-08    6.539
   217  303   1.2508   2.5017   1.6261  0.25017  -7.5765E-08 -2.0993E-07  2.2319E-07 -109.845
   218  303   1.2508   2.5017   1.8763  0.25017  -1.0676E-07 -1.6101E-07  1.9319E-07 -123.547
   219  303   1.2508   2.5017   2.1264  0.25017  -2.1133E-08  1.0716E-07  1.0923E-07  101.156
   220  303   1.2508   2.5017   2.3766  0.25017   1.7867E-08  1.2582E-07  1.2708E-07   81.918
   221  304   3.7525   2.5017  -2.3766  0.25017   1.0807E-07 -1.9426E-07  2.2230E-07  -60.913
   222  304   3.7525   2.5017  -2.1264  0.25017   1.0269E-07 -2.0018E-07  2.2499E-07  -62.843
   223  304   3.7525   2.5017  -1.8763  0.25017  -1.0552E-07  1.5739E-07  1.8950E-07  123.840
   224  304   3.7525   2.5017  -1.6261  0.25017  -1.2376E-07  1.7738E-07  2.1629E-07  124.904
   225  304   3.7525   2.5017  -1.3759  0.25017   5.1311E-08 -1.4639E-07  1.5513E-07  -70.684
   226  304   3.7525   2.5017  -1.1258  0.25017   3.7621E-08 -1.4482E-07  1.4962E-07  -75.437
   227  304   3.7525   2.5017  -0.8756  0.25017  -1.6891E-07  1.7482E-07  2.4309E-07  134.016
   228  304   3.7525   2.5017  -0.6254  0.25017  -1.7437E-07  1.5424E-07  2.3280E-07  138.506
   229  304   3.7525   2.5017  -0.3753  0.25017   4.2629E-08 -1.7962E-07  1.8461E-07  -76.649
   230  304   3.7525   2.5017  -0.1251  0.25017   8.5933E-08 -1.5995E-07  1.8157E-07  -61.753
   231  304   3.7525   2.5017   0.1251  0.25017  -8.4684E-08  1.8134E-07  2.0014E-07  115.032
   232  304   3.7525   2.5017   0.3753  0.25017  -8.4173E-08  1.6985E-07  1.8956E-07  116.362
   233  304   3.7525   2.5017   0.6254  0.25017   1.2607E-07 -1.6688E-07  2.0914E-07  -52.931
   234  304   3.7525   2.5017   0.8756  0.25017   1.5050E-07 -1.5814E-07  2.1831E-07  -46.419
   235  304   3.7525   2.5017   1.1258  0.25017  -6.5094E-08  1.6774E-07  1.7992E-07  111.210
   236  304   3.7525   2.5017   1.3759  0.25017  -1.2104E-07  1.5101E-07  1.9353E-07  128.713
   237  304   3.7525   2.5017   1.6261  0.25017   6.1194E-08 -1.5993E-07  1.7124E-07  -69.062
   238  304   3.7525   2.5017   1.8763  0.25017   9.8124E-08 -9.8035E-08  1.3871E-07  -44.974
   239  304   3.7525   2.5017   2.1264  0.25017  -8.9347E-08  2.6463E-07  2.7931E-07  108.656
   240  304   3.7525   2.5017   2.3766  0.25017  -1.1129E-07  2.1541E-07  2.4246E-07  117.323



                                        - - - POWER BUDGET - - -

                                           INPUT POWER   = 2.7151E-08 WATTS
                                           RADIATED POWER= 2.7151E-08 WATTS
                                           STRUCTURE LOSS= 0.0000E+00 WATTS
                                           NETWORK LOSS  = 0.0000E+00 WATTS
                                           EFFICIENCY    = 100.00 PERCENT



                                                - - - RADIATION PATTERNS - - -

  - - ANGLES - -       - DIRECTIVE GAINS -       - - - POLARIZATION - - -    - - - E(THETA) - - -    - - - E(PHI) - - -
  THETA     PHI        VERT.   HOR.    TOTAL      AXIAL     TILT   SENSE     MAGNITUDE    PHASE      MAGNITUDE    PHASE 
 DEGREES  DEGREES       DB      DB      DB        RATIO     DEG.              VOLTS/M    DEGREES      VOLTS/M    DEGREES
    0.00     0.00    -999.99 -999.99 -999.99    0.00000     0.00            0.00000E+00     0.00    0.00000E+00     0.00
    5.00     0.00      -5.79 -999.99   -5.79    0.00000     0.00  LINEAR    6.55312E-04   119.86    0.00000E+00     0.00
   10.00     0.00       0.56 -999.99    0.56    0.00000     0.00  LINEAR    1.36076E-03     1.29    0.00000E+00     0.00
   15.00     0.00       4.63 -999.99    4.63    0.00000     0.00  LINEAR    2.17383E-03  -114.70    0.00000E+00     0.00
   20.00     0.00       6.42 -999.99    6.42    0.00000     0.00  LINEAR    2.67177E-03   135.65    0.00000E+00     0.00
   25.00     0.00       7.11 -999.99    7.11    0.00000     0.00  LINEAR    2.89250E-03    27.39    0.00000E+00     0.00
   30.00     0.00       5.46 -999.99    5.46    0.00000     0.00  LINEAR    2.39254E-03   -79.23    0.00000E+00     0.00
   35.00     0.00       0.65 -999.99    0.65    0.00000     0.00  LINEAR    1.37532E-03   179.96    0.00000E+00     0.00
   40.00     0.00     -40.07 -999.99  -40.07    0.00000     0.00  LINEAR    1.26621E-05   149.74    0.00000E+00     0.00
   45.00     0.00      -2.95 -999.99   -2.95    0.00000     0.00  LINEAR    9.08138E-04  -175.82    0.00000E+00     0.00
   50.00     0.00      -7.15 -999.99   -7.15    0.00000     0.00  LINEAR    5.60016E-04   100.05    0.00000E+00     0.00
   55.00     0.00      -5.38 -999.99   -5.38    0.00000     0.00  LINEAR    6.86493E-04  -140.58    0.00000E+00     0.00
   60.00     0.00       1.06 -999.99    1.06    0.00000     0.00  LINEAR    1.44177E-03   153.81    0.00000E+00     0.00
   65.00     0.00      -3.25 -999.99   -3.25    0.00000     0.00  LINEAR    8.77623E-04    99.04    0.00000E+00     0.00
   70.00     0.00     -10.59 -999.99  -10.59    0.00000     0.00  LINEAR    3.77007E-04  -141.73    0.00000E+00     0.00
   75.00     0.00      -6.43 -999.99   -6.43    0.00000     0.00  LINEAR    6.08343E-04  -172.85    0.00000E+00     0.00
   80.00     0.00      -7.99 -999.99   -7.99    0.00000     0.00  LINEAR    5.08577E-04     0.30    0.00000E+00     0.00
   85.00     0.00      -0.12 -999.99   -0.12    0.00000     0.00  LINEAR    1.25895E-03   -17.91    0.00000E+00     0.00
   90.00     0.00      -7.54 -999.99   -7.54    0.00000     0.00  LINEAR    5.35744E-04     1.55    0.00000E+00     0.00
    0.00     5.00    -999.99 -999.99 -999.99    0.00000     0.00            0.00000E+00     0.00    0.00000E+00     0.00
    5.00     5.00      -5.73 -999.99   -5.73    0.00000     0.00  LINEAR    6.59707E-04   127.22    0.00000E+00     0.00
   10.00     5.00       0.65 -999.99    0.65    0.00000     0.00  LINEAR    1.37436E-03    16.02    0.00000E+00     0.00
   15.00     5.00       4.45 -999.99    4.45    0.00000     0.00  LINEAR    2.13092E-03   -93.02    0.00000E+00     0.00
   20.00     5.00       6.60 -999.99    6.60    0.00000     0.00  LINEAR    2.72831E-03   163.97    0.00000E+00     0.00
   25.00     5.00       7.11 -999.99    7.11    0.00000     0.00  LINEAR    2.89145E-03    61.95    0.00000E+00     0.00
   30.00     5.00       5.63 -999.99    5.63    0.00000     0.00  LINEAR    2.43930E-03   -36.94    0.00000E+00     0.00
   35.00     5.00       0.83 -999.99    0.83    0.00000     0.00  LINEAR    1.40350E-03  -132.23    0.00000E+00     0.00
   40.00     5.00     -23.59 -999.99  -23.59    0.00000     0.00  LINEAR    8.43736E-05    94.08    0.00000E+00     0.00
   45.00     5.00      -3.82 -999.99   -3.82    0.00000     0.00  LINEAR    8.21772E-04  -118.86    0.00000E+00     0.00
   50.00     5.00      -7.74 -999.99   -7.74    0.00000     0.00  LINEAR    5.23124E-04   166.30    0.00000E+00     0.00
   55.00     5.00      -5.31 -999.99   -5.31    0.00000     0.00  LINEAR    6.92734E-04   -72.00    0.00000E+00     0.00
   60.00     5.00       1.20 -999.99    1.20    0.00000     0.00  LINEAR    1.46510E-03  -133.89    0.00000E+00     0.00
   65.00     5.00      -3.54 -999.99   -3.54    0.00000     0.00  LINEAR    8.49195E-04   178.74    0.00000E+00     0.00
   70.00     5.00      -9.79 -999.99   -9.79    0.00000     0.00  LINEAR    4.13353E-04   -67.00    0.00000E+00     0.00
   75.00     5.00      -6.21 -999.99   -6.21    0.00000     0.00  LINEAR    6.24092E-04   -95.78    0.00000E+00     0.00
   80.00     5.00      -7.39 -999.99   -7.39    0.00000     0.00  LINEAR    5.44662E-04    79.56    0.00000E+00     0.00
   85.00     5.00       0.43 -999.99    0.43    0.00000     0.00  LINEAR    1.34079E-03    62.23    0.00000E+00     0.00
   90.00     5.00      -7.57 -999.99   -7.57    0.00000     0.00  LINEAR    5.33629E-04    78.55    0.00000E+00     0.00
    0.00    10.00    -999.99 -999.99 -999.99    0.00000     0.00            0.00000E+00     0.00    0.00000E+00     0.00
    5.00    10.00      -5.67 -999.99   -5.67    0.00000     0.00  LINEAR    6.63877E-04   135.41    0.00000E+00     0.00
   10.00    10.00       0.71 -999.99    0.71    0.00000     0.00  LINEAR    1.38499E-03    32.18    0.00000E+00     0.00
   15.00    10.00       4.31 -999.99    4.31    0.00000     0.00  LINEAR    2.09479E-03   -68.17    0.00000E+00     0.00
   20.00    10.00       6.70 -999.99    6.70    0.00000     0.00  LINEAR    2.75877E-03  -165.25    0.00000E+00     0.00
   25.00    10.00       7.11 -999.99    7.11    0.00000     0.00  LINEAR    2.89286E-03   101.38    0.00000E+00     0.00
   30.00    10.00       5.81 -999.99    5.81    0.00000     0.00  LINEAR    2.49108E-03     9.82    0.00000E+00     0.00
   35.00    10.00       0.87 -999.99    0.87    0.00000     0.00  LINEAR    1.41078E-03   -79.94    0.00000E+00     0.00
   40.00    10.00     -19.01 -999.99  -19.01    0.00000     0.00  LINEAR    1.42997E-04   119.93    0.00000E+00     0.00
   45.00    10.00      -4.15 -999.99   -4.15    0.00000     0.00  LINEAR    7.90823E-04   -43.50    0.00000E+00     0.00
   50.00    10.00      -7.56 -999.99   -7.56    0.00000     0.00  LINEAR    5.34243E-04  -116.74    0.00000E+00     0.00
   55.00    10.00      -4.76 -999.99   -4.76    0.00000     0.00  LINEAR    7.37495E-04     0.64    0.00000E+00     0.00
   60.00    10.00       1.78 -999.99    1.78    0.00000     0.00  LINEAR    1.56636E-03   -54.55    0.00000E+00     0.00
   65.00    10.00      -2.54 -999.99   -2.54    0.00000     0.00  LINEAR    9.52222E-04   -98.22    0.00000E+00     0.00
   70.00    10.00      -9.56 -999.99   -9.56    0.00000     0.00  LINEAR    4.24324E-04    31.22    0.00000E+00     0.00
   75.00    10.00      -5.95 -999.99   -5.95    0.00000     0.00  LINEAR    6.43299E-04     1.34    0.00000E+00     0.00
   80.00    10.00      -8.08 -999.99   -8.08    0.00000     0.00  LINEAR    5.03546E-04  -179.09    0.00000E+00     0.00
   85.00    10.00      -0.19 -999.99   -0.19    0.00000     0.00  LINEAR    1.24761E-03   161.15    0.00000E+00     0.00
   90.00    10.00      -8.44 -999.99   -8.44    0.00000     0.00  LINEAR    4.82845E-04   179.40    0.00000E+00     0.00
    0.00    15.00    -999.99 -999.99 -999.99    0.00000     0.00            0.00000E+00     0.00    0.00000E+00     0.00
    5.00    15.00      -5.62 -999.99   -5.62    0.00000     0.00  LINEAR    6.67870E-04   144.36    0.00000E+00     0.00
   10.00    15.00       0.74 -999.99    0.74    0.00000     0.00  LINEAR    1.38933E-03    49.76    0.00000E+00     0.00
   15.00    15.00       4.27 -999.99    4.27    0.00000     0.00  LINEAR    2.08569E-03   -40.55    0.00000E+00     0.00
   20.00    15.00       6.61 -999.99    6.61    0.00000     0.00  LINEAR    2.73208E-03  -131.53    0.00000E+00     0.00
   25.00    15.00       7.23 -999.99    7.23    0.00000     0.00  LINEAR    2.93460E-03   144.51    0.00000E+00     0.00
   30.00    15.00       6.01 -999.99    6.01    0.00000     0.00  LINEAR    2.54890E-03    60.12    0.00000E+00     0.00
   35.00    15.00       0.70 -999.99    0.70    0.00000     0.00  LINEAR    1.38232E-03   -21.94    0.00000E+00     0.00
   40.00    15.00     -17.12 -999.99  -17.12    0.00000     0.00  LINEAR    1.77834E-04   154.40    0.00000E+00     0.00
   45.00    15.00      -2.65 -999.99   -2.65    0.00000     0.00  LINEAR    9.40510E-04    31.72    0.00000E+00     0.00
   50.00    15.00      -6.81 -999.99   -6.81    0.00000     0.00  LINEAR    5.82380E-04   -37.19    0.00000E+00     0.00
   55.00    15.00      -5.17 -999.99   -5.17    0.00000     0.00  LINEAR    7.03788E-04    80.81    0.00000E+00     0.00
   60.00    15.00       1.31 -999.99    1.31    0.00000     0.00  LINEAR    1.48439E-03    30.51    0.00000E+00     0.00
   65.00    15.00      -3.31 -999.99   -3.31    0.00000     0.00  LINEAR    8.71767E-04    -7.80    0.00000E+00     0.00
   70.00    15.00      -6.95 -999.99   -6.95    0.00000     0.00  LINEAR    5.73278E-04   112.35    0.00000E+00     0.00
   75.00    15.00      -5.12 -999.99   -5.12    0.00000     0.00  LINEAR    7.08057E-04    91.20    0.00000E+00     0.00
   80.00    15.00      -5.43 -999.99   -5.43    0.00000     0.00  LINEAR    6.83139E-04   -83.87    0.00000E+00     0.00
   85.00    15.00       1.37 -999.99    1.37    0.00000     0.00  LINEAR    1.49432E-03   -99.49    0.00000E+00     0.00
   90.00    15.00      -6.74 -999.99   -6.74    0.00000     0.00  LINEAR    5.87446E-04   -77.10    0.00000E+00     0.00
    0.00    20.00    -999.99 -999.99 -999.99    0.00000     0.00            0.00000E+00     0.00    0.00000E+00     0.00
    5.00    20.00      -5.57 -999.99   -5.57    0.00000     0.00  LINEAR    6.71714E-04   154.01    0.00000E+00     0.00
   10.00    20.00       0.72 -999.99    0.72    0.00000     0.00  LINEAR    1.38633E-03    68.81    0.00000E+00     0.00
   15.00    20.00       4.37 -999.99    4.37    0.00000     0.00  LINEAR    2.11060E-03   -11.05    0.00000E+00     0.00
   20.00    20.00       6.39 -999.99    6.39    0.00000     0.00  LINEAR    2.66322E-03   -93.98    0.00000E+00     0.00
   25.00    20.00       7.34 -999.99    7.34    0.00000     0.00  LINEAR    2.96991E-03  -169.90    0.00000E+00     0.00
   30.00    20.00       6.04 -999.99    6.04    0.00000     0.00  LINEAR    2.55880E-03   113.35    0.00000E+00     0.00
   35.00    20.00       0.55 -999.99    0.55    0.00000     0.00  LINEAR    1.35946E-03    42.11    0.00000E+00     0.00
   40.00    20.00     -16.58 -999.99  -16.58    0.00000     0.00  LINEAR    1.89230E-04  -173.35    0.00000E+00     0.00
   45.00    20.00      -1.81 -999.99   -1.81    0.00000     0.00  LINEAR    1.03538E-03   105.13    0.00000E+00     0.00
   50.00    20.00      -6.52 -999.99   -6.52    0.00000     0.00  LINEAR    6.02307E-04    45.16    0.00000E+00     0.00
   55.00    20.00      -5.30 -999.99   -5.30    0.00000     0.00  LINEAR    6.93133E-04   168.86    0.00000E+00     0.00
   60.00    20.00       1.23 -999.99    1.23    0.00000     0.00  LINEAR    1.46949E-03   130.37    0.00000E+00     0.00
   65.00    20.00      -3.14 -999.99   -3.14    0.00000     0.00  LINEAR    8.88701E-04    96.06    0.00000E+00     0.00
   70.00    20.00     -10.33 -999.99  -10.33    0.00000     0.00  LINEAR    3.88455E-04  -160.96    0.00000E+00     0.00
   75.00    20.00      -6.43 -999.99   -6.43    0.00000     0.00  LINEAR    6.08379E-04  -166.15    0.00000E+00     0.00
   80.00    20.00      -7.42 -999.99   -7.42    0.00000     0.00  LINEAR    5.42930E-04    17.73    0.00000E+00     0.00
   85.00    20.00       0.20 -999.99    0.20    0.00000     0.00  LINEAR    1.30579E-03     6.43    0.00000E+00     0.00
   90.00    20.00      -7.44 -999.99   -7.44    0.00000     0.00  LINEAR    5.41673E-04    27.45    0.00000E+00     0.00
    0.00    25.00    -999.99 -999.99 -999.99    0.00000     0.00            0.00000E+00     0.00    0.00000E+00     0.00
    5.00    25.00      -5.53 -999.99   -5.53    0.00000     0.00  LINEAR    6.75381E-04   164.25    0.00000E+00     0.00
   10.00    25.00       0.67 -999.99    0.67    0.00000     0.00  LINEAR    1.37873E-03    89.42    0.00000E+00     0.00
   15.00    25.00       4.54 -999.99    4.54    0.00000     0.00  LINEAR    2.15157E-03    19.52    0.00000E+00     0.00
   20.00    25.00       6.25 -999.99    6.25    0.00000     0.00  LINEAR    2.62015E-03   -52.48    0.00000E+00     0.00
   25.00    25.00       7.26 -999.99    7.26    0.00000     0.00  LINEAR    2.94450E-03  -121.26    0.00000E+00     0.00
   30.00    25.00       5.74 -999.99    5.74    0.00000     0.00  LINEAR    2.47130E-03   170.60    0.00000E+00     0.00
   35.00    25.00       0.55 -999.99    0.55    0.00000     0.00  LINEAR    1.35938E-03   110.28    0.00000E+00     0.00
   40.00    25.00     -19.12 -999.99  -19.12    0.00000     0.00  LINEAR    1.41116E-04  -146.22    0.00000E+00     0.00
   45.00    25.00      -1.47 -999.99   -1.47    0.00000     0.00  LINEAR    1.07719E-03  -178.89    0.00000E+00     0.00
   50.00    25.00      -6.37 -999.99   -6.37    0.00000     0.00  LINEAR    6.13035E-04   135.04    0.00000E+00     0.00
   55.00    25.00      -6.40 -999.99   -6.40    0.00000     0.00  LINEAR    6.10520E-04   -89.29    0.00000E+00     0.00
   60.00    25.00       1.33 -999.99    1.33    0.00000     0.00  LINEAR    1.48688E-03  -126.80    0.00000E+00     0.00
   65.00    25.00      -3.61 -999.99   -3.61    0.00000     0.00  LINEAR    8.42443E-04  -152.69    0.00000E+00     0.00
   70.00    25.00      -8.81 -999.99   -8.81    0.00000     0.00  LINEAR    4.62857E-04   -24.82    0.00000E+00     0.00
   75.00    25.00      -6.94 -999.99   -6.94    0.00000     0.00  LINEAR    5.73751E-04   -40.92    0.00000E+00     0.00
   80.00    25.00      -5.36 -999.99   -5.36    0.00000     0.00  LINEAR    6.88096E-04   137.84    0.00000E+00     0.00
   85.00    25.00       1.30 -999.99    1.30    0.00000     0.00  LINEAR    1.48210E-03   128.50    0.00000E+00     0.00
   90.00    25.00      -6.05 -999.99   -6.05    0.00000     0.00  LINEAR    6.36076E-04   147.78    0.00000E+00     0.00
    0.00    30.00    -999.99 -999.99 -999.99    0.00000     0.00            0.00000E+00     0.00    0.00000E+00     0.00
    5.00    30.00      -5.48 -999.99   -5.48    0.00000     0.00  LINEAR    6.78764E-04   175.02    0.00000E+00     0.00
   10.00    30.00       0.64 -999.99    0.64    0.00000     0.00  LINEAR    1.37307E-03   111.54    0.00000E+00     0.00
   15.00    30.00       4.65 -999.99    4.65    0.00000     0.00  LINEAR    2.17969E-03    51.03    0.00000E+00     0.00
   20.00    30.00       6.34 -999.99    6.34    0.00000     0.00  LINEAR    2.64660E-03    -8.59    0.00000E+00     0.00
   25.00    30.00       7.16 -999.99    7.16    0.00000     0.00  LINEAR    2.90934E-03   -68.91    0.00000E+00     0.00
   30.00    30.00       5.29 -999.99    5.29    0.00000     0.00  LINEAR    2.34642E-03  -125.91    0.00000E+00     0.00
   35.00    30.00       0.51 -999.99    0.51    0.00000     0.00  LINEAR    1.35271E-03  -178.54    0.00000E+00     0.00
   40.00    30.00     -27.16 -999.99  -27.16    0.00000     0.00  LINEAR    5.59283E-05  -110.34    0.00000E+00     0.00
   45.00    30.00      -2.57 -999.99   -2.57    0.00000     0.00  LINEAR    9.48755E-04   -96.84    0.00000E+00     0.00
   50.00    30.00      -6.42 -999.99   -6.42    0.00000     0.00  LINEAR    6.09596E-04  -133.69    0.00000E+00     0.00
   55.00    30.00      -4.31 -999.99   -4.31    0.00000     0.00  LINEAR    7.76570E-04    14.16    0.00000E+00     0.00
   60.00    30.00       2.39 -999.99    2.39    0.00000     0.00  LINEAR    1.67993E-03   -17.85    0.00000E+00     0.00
   65.00    30.00      -1.61 -999.99   -1.61    0.00000     0.00  LINEAR    1.05950E-03   -36.95    0.00000E+00     0.00
   70.00    30.00      -9.16 -999.99   -9.16    0.00000     0.00  LINEAR    4.44472E-04    67.79    0.00000E+00     0.00
   75.00    30.00      -6.27 -999.99   -6.27    0.00000     0.00  LINEAR    6.20185E-04    74.57    0.00000E+00     0.00
   80.00    30.00      -6.62 -999.99   -6.62    0.00000     0.00  LINEAR    5.95492E-04  -110.85    0.00000E+00     0.00
   85.00    30.00       0.82 -999.99    0.82    0.00000     0.00  LINEAR    1.40154E-03  -115.07    0.00000E+00     0.00
   90.00    30.00      -7.24 -999.99   -7.24    0.00000     0.00  LINEAR    5.54704E-04   -95.49    0.00000E+00     0.00
    0.00    35.00    -999.99 -999.99 -999.99    0.00000     0.00            0.00000E+00     0.00    0.00000E+00     0.00
    5.00    35.00      -5.44 -999.99   -5.44    0.00000     0.00  LINEAR    6.81683E-04  -173.77    0.00000E+00     0.00
   10.00    35.00       0.66 -999.99    0.66    0.00000     0.00  LINEAR    1.37707E-03   134.88    0.00000E+00     0.00
   15.00    35.00       4.67 -999.99    4.67    0.00000     0.00  LINEAR    2.18340E-03    83.90    0.00000E+00     0.00
   20.00    35.00       6.54 -999.99    6.54    0.00000     0.00  LINEAR    2.70780E-03    36.22    0.00000E+00     0.00
   25.00    35.00       7.12 -999.99    7.12    0.00000     0.00  LINEAR    2.89555E-03   -14.34    0.00000E+00     0.00
   30.00    35.00       5.38 -999.99    5.38    0.00000     0.00  LINEAR    2.36974E-03   -57.60    0.00000E+00     0.00
   35.00    35.00       0.31 -999.99    0.31    0.00000     0.00  LINEAR    1.32253E-03  -103.29    0.00000E+00     0.00
   40.00    35.00     -38.62 -999.99  -38.62    0.00000     0.00  LINEAR    1.49513E-05   -35.52    0.00000E+00     0.00
   45.00    35.00      -3.11 -999.99   -3.11    0.00000     0.00  LINEAR    8.92380E-04    -0.35    0.00000E+00     0.00
   50.00    35.00      -7.22 -999.99   -7.22    0.00000     0.00  LINEAR    5.55887E-04   -29.79    0.00000E+00     0.00
   55.00    35.00      -4.70 -999.99   -4.70    0.00000     0.00  LINEAR    7.42942E-04   108.63    0.00000E+00     0.00
   60.00    35.00       2.06 -999.99    2.06    0.00000     0.00  LINEAR    1.61679E-03    86.00    0.00000E+00     0.00
   65.00    35.00      -1.60 -999.99   -1.60    0.00000     0.00  LINEAR    1.06096E-03    70.07    0.00000E+00     0.00
   70.00    35.00     -10.32 -999.99  -10.32    0.00000     0.00  LINEAR    3.88831E-04  -161.87    0.00000E+00     0.00
   75.00    35.00      -5.75 -999.99   -5.75    0.00000     0.00  LINEAR    6.57979E-04  -157.29    0.00000E+00     0.00
   80.00    35.00      -8.16 -999.99   -8.16    0.00000     0.00  LINEAR    4.98456E-04    20.43    0.00000E+00     0.00
   85.00    35.00       0.01 -999.99    0.01    0.00000     0.00  LINEAR    1.27806E-03    15.95    0.00000E+00     0.00
   90.00    35.00      -7.93 -999.99   -7.93    0.00000     0.00  LINEAR    5.11865E-04    37.33    0.00000E+00     0.00
    0.00    40.00    -999.99 -999.99 -999.99    0.00000     0.00            0.00000E+00     0.00    0.00000E+00     0.00
    5.00    40.00      -5.42 -999.99   -5.42    0.00000     0.00  LINEAR    6.83926E-04  -162.21    0.00000E+00     0.00
   10.00    40.00       0.77 -999.99    0.77    0.00000     0.00  LINEAR    1.39481E-03   158.91    0.00000E+00     0.00
   15.00    40.00       4.65 -999.99    4.65    0.00000     0.00  LINEAR    2.17973E-03   118.41    0.00000E+00     0.00
   20.00    40.00       6.74 -999.99    6.74    0.00000     0.00  LINEAR    2.77087E-03    81.90    0.00000E+00     0.00
   25.00    40.00       6.93 -999.99    6.93    0.00000     0.00  LINEAR    2.83318E-03    42.44    0.00000E+00     0.00
   30.00    40.00       5.77 -999.99    5.77    0.00000     0.00  LINEAR    2.47997E-03     9.40    0.00000E+00     0.00
   35.00    40.00       0.39 -999.99    0.39    0.00000     0.00  LINEAR    1.33377E-03   -23.66    0.00000E+00     0.00
   40.00    40.00     -44.36 -999.99  -44.36    0.00000     0.00  LINEAR    7.72322E-06  -136.41    0.00000E+00     0.00
   45.00    40.00      -3.22 -999.99   -3.22    0.00000     0.00  LINEAR    8.80840E-04    96.20    0.00000E+00     0.00
   50.00    40.00      -5.97 -999.99   -5.97    0.00000     0.00  LINEAR    6.41599E-04    76.84    0.00000E+00     0.00
   55.00    40.00      -6.26 -999.99   -6.26    0.00000     0.00  LINEAR    6.20746E-04  -143.40    0.00000E+00     0.00
   60.00    40.00       1.55 -999.99    1.55    0.00000     0.00  LINEAR    1.52438E-03  -153.28    0.00000E+00     0.00
   65.00    40.00      -2.28 -999.99   -2.28    0.00000     0.00  LINEAR    9.81338E-04  -167.22    0.00000E+00     0.00
   70.00    40.00     -10.92 -999.99  -10.92    0.00000     0.00  LINEAR    3.62847E-04   -30.22    0.00000E+00     0.00
   75.00    40.00      -5.98 -999.99   -5.98    0.00000     0.00  LINEAR    6.41110E-04   -30.75    0.00000E+00     0.00
   80.00    40.00      -6.79 -999.99   -6.79    0.00000     0.00  LINEAR    5.83974E-04   159.69    0.00000E+00     0.00
   85.00    40.00       0.93 -999.99    0.93    0.00000     0.00  LINEAR    1.42044E-03   153.35    0.00000E+00     0.00
   90.00    40.00      -6.71 -999.99   -6.71    0.00000     0.00  LINEAR    5.89536E-04   173.59    0.00000E+00     0.00
    0.00    45.00    -999.99 -999.99 -999.99    0.00000     0.00            0.00000E+00     0.00    0.00000E+00     0.00
    5.00    45.00      -5.40 -999.99   -5.40    0.00000     0.00  LINEAR    6.85318E-04  -150.35    0.00000E+00     0.00
   10.00    45.00       0.95 -999.99    0.95    0.00000     0.00  LINEAR    1.42321E-03  -176.94    0.00000E+00     0.00
   15.00    45.00       4.71 -999.99    4.71    0.00000     0.00  LINEAR    2.19323E-03   154.06    0.00000E+00     0.00
   20.00    45.00       6.96 -999.99    6.96    0.00000     0.00  LINEAR    2.84428E-03   127.99    0.00000E+00     0.00
   25.00    45.00       6.91 -999.99    6.91    0.00000     0.00  LINEAR    2.82596E-03   102.91    0.00000E+00     0.00
   30.00    45.00       5.71 -999.99    5.71    0.00000     0.00  LINEAR    2.46125E-03    77.36    0.00000E+00     0.00
   35.00    45.00       0.77 -999.99    0.77    0.00000     0.00  LINEAR    1.39365E-03    55.90    0.00000E+00     0.00
   40.00    45.00     -53.54 -999.99  -53.54    0.00000     0.00  LINEAR    2.68279E-06   -62.01    0.00000E+00     0.00
   45.00    45.00      -2.63 -999.99   -2.63    0.00000     0.00  LINEAR    9.42344E-04  -163.56    0.00000E+00     0.00
   50.00    45.00      -5.40 -999.99   -5.40    0.00000     0.00  LINEAR    6.85199E-04   176.55    0.00000E+00     0.00
   55.00    45.00      -5.87 -999.99   -5.87    0.00000     0.00  LINEAR    6.48804E-04   -15.65    0.00000E+00     0.00
   60.00    45.00       2.50 -999.99    2.50    0.00000     0.00  LINEAR    1.70171E-03   -34.32    0.00000E+00     0.00
   65.00    45.00      -1.55 -999.99   -1.55    0.00000     0.00  LINEAR    1.06682E-03   -44.83    0.00000E+00     0.00
   70.00    45.00     -10.27 -999.99  -10.27    0.00000     0.00  LINEAR    3.91275E-04   111.37    0.00000E+00     0.00
   75.00    45.00      -6.73 -999.99   -6.73    0.00000     0.00  LINEAR    5.87651E-04   107.24    0.00000E+00     0.00
   80.00    45.00      -5.81 -999.99   -5.81    0.00000     0.00  LINEAR    6.53322E-04   -65.65    0.00000E+00     0.00
   85.00    45.00       1.02 -999.99    1.02    0.00000     0.00  LINEAR    1.43547E-03   -69.23    0.00000E+00     0.00
   90.00    45.00      -6.25 -999.99   -6.25    0.00000     0.00  LINEAR    6.21462E-04   -48.60    0.00000E+00     0.00
    0.00    50.00    -999.99 -999.99 -999.99    0.00000     0.00            0.00000E+00     0.00    0.00000E+00     0.00
    5.00    50.00      -5.39 -999.99   -5.39    0.00000     0.00  LINEAR    6.85811E-04  -138.26    0.00000E+00     0.00
   10.00    50.00       1.13 -999.99    1.13    0.00000     0.00  LINEAR    1.45286E-03  -153.05    0.00000E+00     0.00
   15.00    50.00       4.84 -999.99    4.84    0.00000     0.00  LINEAR    2.22623E-03  -170.09    0.00000E+00     0.00
   20.00    50.00       7.09 -999.99    7.09    0.00000     0.00  LINEAR    2.88459E-03   173.52    0.00000E+00     0.00
   25.00    50.00       7.39 -999.99    7.39    0.00000     0.00  LINEAR    2.98645E-03   162.55    0.00000E+00     0.00
   30.00    50.00       5.83 -999.99    5.83    0.00000     0.00  LINEAR    2.49529E-03   148.77    0.00000E+00     0.00
   35.00    50.00       1.00 -999.99    1.00    0.00000     0.00  LINEAR    1.43089E-03   135.70    0.00000E+00     0.00
   40.00    50.00     -33.36 -999.99  -33.36    0.00000     0.00  LINEAR    2.73987E-05    61.59    0.00000E+00     0.00
   45.00    50.00      -2.44 -999.99   -2.44    0.00000     0.00  LINEAR    9.63947E-04   -68.65    0.00000E+00     0.00
   50.00    50.00      -5.49 -999.99   -5.49    0.00000     0.00  LINEAR    6.78183E-04   -81.28    0.00000E+00     0.00
   55.00    50.00      -4.60 -999.99   -4.60    0.00000     0.00  LINEAR    7.50952E-04    85.16    0.00000E+00     0.00
   60.00    50.00       2.02 -999.99    2.02    0.00000     0.00  LINEAR    1.60991E-03    77.26    0.00000E+00     0.00
[...]
   40.00   315.00     -29.00 -999.99  -29.00    0.00000     0.00  LINEAR    4.52755E-05  -127.43    0.00000E+00     0.00
   45.00   315.00      -3.30 -999.99   -3.30    0.00000     0.00  LINEAR    8.72942E-04     2.35    0.00000E+00     0.00
   50.00   315.00      -5.96 -999.99   -5.96    0.00000     0.00  LINEAR    6.42674E-04   -88.03    0.00000E+00     0.00
   55.00   315.00      -4.84 -999.99   -4.84    0.00000     0.00  LINEAR    7.31211E-04    16.97    0.00000E+00     0.00
   60.00   315.00       2.19 -999.99    2.19    0.00000     0.00  LINEAR    1.64190E-03   -55.84    0.00000E+00     0.00
   65.00   315.00      -2.10 -999.99   -2.10    0.00000     0.00  LINEAR    1.00135E-03  -113.14    0.00000E+00     0.00
   70.00   315.00     -10.56 -999.99  -10.56    0.00000     0.00  LINEAR    3.78343E-04   -12.36    0.00000E+00     0.00
   75.00   315.00      -6.96 -999.99   -6.96    0.00000     0.00  LINEAR    5.72398E-04   -44.70    0.00000E+00     0.00
   80.00   315.00      -7.23 -999.99   -7.23    0.00000     0.00  LINEAR    5.55085E-04   118.19    0.00000E+00     0.00
   85.00   315.00       0.36 -999.99    0.36    0.00000     0.00  LINEAR    1.32936E-03    99.62    0.00000E+00     0.00
   90.00   315.00      -6.94 -999.99   -6.94    0.00000     0.00  LINEAR    5.73960E-04   117.95    0.00000E+00     0.00
    0.00   320.00    -999.99 -999.99 -999.99    0.00000     0.00            0.00000E+00     0.00    0.00000E+00     0.00
    5.00   320.00      -6.30 -999.99   -6.30    0.00000     0.00  LINEAR    6.17711E-04    96.84    0.00000E+00     0.00
   10.00   320.00       0.77 -999.99    0.77    0.00000     0.00  LINEAR    1.39430E-03   -49.40    0.00000E+00     0.00
   15.00   320.00       4.97 -999.99    4.97    0.00000     0.00  LINEAR    2.26086E-03   176.95    0.00000E+00     0.00
   20.00   320.00       6.71 -999.99    6.71    0.00000     0.00  LINEAR    2.76145E-03    46.40    0.00000E+00     0.00
   25.00   320.00       7.11 -999.99    7.11    0.00000     0.00  LINEAR    2.89308E-03   -87.05    0.00000E+00     0.00
   30.00   320.00       6.01 -999.99    6.01    0.00000     0.00  LINEAR    2.54761E-03   150.83    0.00000E+00     0.00
   35.00   320.00       0.71 -999.99    0.71    0.00000     0.00  LINEAR    1.38457E-03    32.42    0.00000E+00     0.00
   40.00   320.00     -41.44 -999.99  -41.44    0.00000     0.00  LINEAR    1.08050E-05  -105.69    0.00000E+00     0.00
   45.00   320.00      -3.14 -999.99   -3.14    0.00000     0.00  LINEAR    8.89115E-04    -8.27    0.00000E+00     0.00
   50.00   320.00      -5.85 -999.99   -5.85    0.00000     0.00  LINEAR    6.50297E-04  -104.31    0.00000E+00     0.00
   55.00   320.00      -4.98 -999.99   -4.98    0.00000     0.00  LINEAR    7.18858E-04    -4.21    0.00000E+00     0.00
   60.00   320.00       1.94 -999.99    1.94    0.00000     0.00  LINEAR    1.59502E-03   -75.03    0.00000E+00     0.00
   65.00   320.00      -2.32 -999.99   -2.32    0.00000     0.00  LINEAR    9.76896E-04  -136.77    0.00000E+00     0.00
   70.00   320.00     -11.12 -999.99  -11.12    0.00000     0.00  LINEAR    3.54720E-04   -39.09    0.00000E+00     0.00
   75.00   320.00      -6.17 -999.99   -6.17    0.00000     0.00  LINEAR    6.27414E-04   -70.42    0.00000E+00     0.00
   80.00   320.00      -7.89 -999.99   -7.89    0.00000     0.00  LINEAR    5.14484E-04    96.44    0.00000E+00     0.00
   85.00   320.00       0.25 -999.99    0.25    0.00000     0.00  LINEAR    1.31376E-03    76.79    0.00000E+00     0.00
   90.00   320.00      -7.70 -999.99   -7.70    0.00000     0.00  LINEAR    5.25727E-04    94.42    0.00000E+00     0.00
    0.00   325.00    -999.99 -999.99 -999.99    0.00000     0.00            0.00000E+00     0.00    0.00000E+00     0.00
    5.00   325.00      -6.25 -999.99   -6.25    0.00000     0.00  LINEAR    6.21180E-04    95.84    0.00000E+00     0.00
   10.00   325.00       0.66 -999.99    0.66    0.00000     0.00  LINEAR    1.37728E-03   -50.53    0.00000E+00     0.00
   15.00   325.00       5.02 -999.99    5.02    0.00000     0.00  LINEAR    2.27440E-03   174.44    0.00000E+00     0.00
   20.00   325.00       6.54 -999.99    6.54    0.00000     0.00  LINEAR    2.70902E-03    42.76    0.00000E+00     0.00
   25.00   325.00       7.23 -999.99    7.23    0.00000     0.00  LINEAR    2.93153E-03   -91.22    0.00000E+00     0.00
   30.00   325.00       5.94 -999.99    5.94    0.00000     0.00  LINEAR    2.52931E-03   145.65    0.00000E+00     0.00
   35.00   325.00       0.77 -999.99    0.77    0.00000     0.00  LINEAR    1.39452E-03    25.82    0.00000E+00     0.00
   40.00   325.00     -43.42 -999.99  -43.42    0.00000     0.00  LINEAR    8.60605E-06   175.55    0.00000E+00     0.00
   45.00   325.00      -3.12 -999.99   -3.12    0.00000     0.00  LINEAR    8.90464E-04   -11.59    0.00000E+00     0.00
   50.00   325.00      -5.95 -999.99   -5.95    0.00000     0.00  LINEAR    6.43187E-04  -108.46    0.00000E+00     0.00
   55.00   325.00      -5.26 -999.99   -5.26    0.00000     0.00  LINEAR    6.96408E-04    -6.79    0.00000E+00     0.00
   60.00   325.00       0.96 -999.99    0.96    0.00000     0.00  LINEAR    1.42574E-03   -82.65    0.00000E+00     0.00
   65.00   325.00      -3.62 -999.99   -3.62    0.00000     0.00  LINEAR    8.41027E-04  -146.83    0.00000E+00     0.00
   70.00   325.00      -9.07 -999.99   -9.07    0.00000     0.00  LINEAR    4.49272E-04   -32.64    0.00000E+00     0.00
   75.00   325.00      -6.68 -999.99   -6.68    0.00000     0.00  LINEAR    5.91528E-04   -74.61    0.00000E+00     0.00
   80.00   325.00      -7.27 -999.99   -7.27    0.00000     0.00  LINEAR    5.52465E-04    97.70    0.00000E+00     0.00
   85.00   325.00      -0.17 -999.99   -0.17    0.00000     0.00  LINEAR    1.25181E-03    73.74    0.00000E+00     0.00
   90.00   325.00      -7.58 -999.99   -7.58    0.00000     0.00  LINEAR    5.33387E-04    93.24    0.00000E+00     0.00
    0.00   330.00    -999.99 -999.99 -999.99    0.00000     0.00            0.00000E+00     0.00    0.00000E+00     0.00
    5.00   330.00      -6.19 -999.99   -6.19    0.00000     0.00  LINEAR    6.25503E-04    96.01    0.00000E+00     0.00
   10.00   330.00       0.56 -999.99    0.56    0.00000     0.00  LINEAR    1.36066E-03   -49.49    0.00000E+00     0.00
   15.00   330.00       5.03 -999.99    5.03    0.00000     0.00  LINEAR    2.27672E-03   175.47    0.00000E+00     0.00
   20.00   330.00       6.38 -999.99    6.38    0.00000     0.00  LINEAR    2.65941E-03    42.75    0.00000E+00     0.00
   25.00   330.00       7.23 -999.99    7.23    0.00000     0.00  LINEAR    2.93140E-03   -89.72    0.00000E+00     0.00
   30.00   330.00       5.91 -999.99    5.91    0.00000     0.00  LINEAR    2.52090E-03   145.50    0.00000E+00     0.00
   35.00   330.00       0.78 -999.99    0.78    0.00000     0.00  LINEAR    1.39559E-03    26.20    0.00000E+00     0.00
   40.00   330.00     -26.77 -999.99  -26.77    0.00000     0.00  LINEAR    5.85355E-05  -166.55    0.00000E+00     0.00
   45.00   330.00      -3.21 -999.99   -3.21    0.00000     0.00  LINEAR    8.81895E-04    -4.81    0.00000E+00     0.00
   50.00   330.00      -7.16 -999.99   -7.16    0.00000     0.00  LINEAR    5.59267E-04  -102.70    0.00000E+00     0.00
   55.00   330.00      -4.74 -999.99   -4.74    0.00000     0.00  LINEAR    7.39133E-04    -1.17    0.00000E+00     0.00
   60.00   330.00       1.22 -999.99    1.22    0.00000     0.00  LINEAR    1.46799E-03   -77.50    0.00000E+00     0.00
   65.00   330.00      -3.94 -999.99   -3.94    0.00000     0.00  LINEAR    8.10864E-04  -137.18    0.00000E+00     0.00
   70.00   330.00      -9.06 -999.99   -9.06    0.00000     0.00  LINEAR    4.49685E-04   -24.04    0.00000E+00     0.00
   75.00   330.00      -8.43 -999.99   -8.43    0.00000     0.00  LINEAR    4.83326E-04   -70.80    0.00000E+00     0.00
   80.00   330.00      -6.78 -999.99   -6.78    0.00000     0.00  LINEAR    5.84812E-04   101.52    0.00000E+00     0.00
   85.00   330.00      -0.43 -999.99   -0.43    0.00000     0.00  LINEAR    1.21359E-03    76.64    0.00000E+00     0.00
   90.00   330.00      -7.37 -999.99   -7.37    0.00000     0.00  LINEAR    5.46254E-04    98.32    0.00000E+00     0.00
    0.00   335.00    -999.99 -999.99 -999.99    0.00000     0.00            0.00000E+00     0.00    0.00000E+00     0.00
    5.00   335.00      -6.12 -999.99   -6.12    0.00000     0.00  LINEAR    6.30355E-04    97.34    0.00000E+00     0.00
   10.00   335.00       0.47 -999.99    0.47    0.00000     0.00  LINEAR    1.34709E-03   -46.23    0.00000E+00     0.00
   15.00   335.00       5.00 -999.99    5.00    0.00000     0.00  LINEAR    2.26932E-03   179.85    0.00000E+00     0.00
   20.00   335.00       6.26 -999.99    6.26    0.00000     0.00  LINEAR    2.62191E-03    47.02    0.00000E+00     0.00
   25.00   335.00       7.07 -999.99    7.07    0.00000     0.00  LINEAR    2.87793E-03   -82.69    0.00000E+00     0.00
   30.00   335.00       5.89 -999.99    5.89    0.00000     0.00  LINEAR    2.51341E-03   150.88    0.00000E+00     0.00
   35.00   335.00       0.68 -999.99    0.68    0.00000     0.00  LINEAR    1.37916E-03    33.74    0.00000E+00     0.00
   40.00   335.00     -20.06 -999.99  -20.06    0.00000     0.00  LINEAR    1.26748E-04  -175.82    0.00000E+00     0.00
   45.00   335.00      -3.04 -999.99   -3.04    0.00000     0.00  LINEAR    8.99116E-04    13.78    0.00000E+00     0.00
   50.00   335.00      -8.26 -999.99   -8.26    0.00000     0.00  LINEAR    4.93091E-04   -83.64    0.00000E+00     0.00
   55.00   335.00      -3.90 -999.99   -3.90    0.00000     0.00  LINEAR    8.14799E-04     6.31    0.00000E+00     0.00
   60.00   335.00       1.95 -999.99    1.95    0.00000     0.00  LINEAR    1.59706E-03   -63.20    0.00000E+00     0.00
   65.00   335.00      -3.23 -999.99   -3.23    0.00000     0.00  LINEAR    8.79683E-04  -118.82    0.00000E+00     0.00
   70.00   335.00      -8.59 -999.99   -8.59    0.00000     0.00  LINEAR    4.74353E-04   -21.19    0.00000E+00     0.00
   75.00   335.00      -7.33 -999.99   -7.33    0.00000     0.00  LINEAR    5.48550E-04   -57.30    0.00000E+00     0.00
   80.00   335.00      -5.99 -999.99   -5.99    0.00000     0.00  LINEAR    6.39972E-04   112.54    0.00000E+00     0.00
   85.00   335.00       0.54 -999.99    0.54    0.00000     0.00  LINEAR    1.35796E-03    91.85    0.00000E+00     0.00
   90.00   335.00      -6.85 -999.99   -6.85    0.00000     0.00  LINEAR    5.80078E-04   110.63    0.00000E+00     0.00
    0.00   340.00    -999.99 -999.99 -999.99    0.00000     0.00            0.00000E+00     0.00    0.00000E+00     0.00
    5.00   340.00      -6.05 -999.99   -6.05    0.00000     0.00  LINEAR    6.35476E-04    99.78    0.00000E+00     0.00
   10.00   340.00       0.42 -999.99    0.42    0.00000     0.00  LINEAR    1.33839E-03   -40.75    0.00000E+00     0.00
   15.00   340.00       4.96 -999.99    4.96    0.00000     0.00  LINEAR    2.25751E-03  -172.65    0.00000E+00     0.00
   20.00   340.00       6.17 -999.99    6.17    0.00000     0.00  LINEAR    2.59751E-03    55.99    0.00000E+00     0.00
   25.00   340.00       6.84 -999.99    6.84    0.00000     0.00  LINEAR    2.80331E-03   -70.02    0.00000E+00     0.00
   30.00   340.00       5.75 -999.99    5.75    0.00000     0.00  LINEAR    2.47257E-03   162.81    0.00000E+00     0.00
   35.00   340.00       0.54 -999.99    0.54    0.00000     0.00  LINEAR    1.35739E-03    48.80    0.00000E+00     0.00
   40.00   340.00     -17.00 -999.99  -17.00    0.00000     0.00  LINEAR    1.80306E-04   176.05    0.00000E+00     0.00
   45.00   340.00      -2.46 -999.99   -2.46    0.00000     0.00  LINEAR    9.60935E-04    35.87    0.00000E+00     0.00
   50.00   340.00      -7.55 -999.99   -7.55    0.00000     0.00  LINEAR    5.35182E-04   -59.23    0.00000E+00     0.00
   55.00   340.00      -4.02 -999.99   -4.02    0.00000     0.00  LINEAR    8.03114E-04    25.07    0.00000E+00     0.00
   60.00   340.00       2.08 -999.99    2.08    0.00000     0.00  LINEAR    1.62176E-03   -40.19    0.00000E+00     0.00
   65.00   340.00      -2.79 -999.99   -2.79    0.00000     0.00  LINEAR    9.25236E-04   -93.65    0.00000E+00     0.00
   70.00   340.00      -7.86 -999.99   -7.86    0.00000     0.00  LINEAR    5.16489E-04    -3.23    0.00000E+00     0.00
   75.00   340.00      -6.38 -999.99   -6.38    0.00000     0.00  LINEAR    6.12122E-04   -30.86    0.00000E+00     0.00
   80.00   340.00      -5.66 -999.99   -5.66    0.00000     0.00  LINEAR    6.64837E-04   135.27    0.00000E+00     0.00
   85.00   340.00       1.10 -999.99    1.10    0.00000     0.00  LINEAR    1.44897E-03   117.32    0.00000E+00     0.00
   90.00   340.00      -6.39 -999.99   -6.39    0.00000     0.00  LINEAR    6.11169E-04   134.25    0.00000E+00     0.00
    0.00   345.00    -999.99 -999.99 -999.99    0.00000     0.00            0.00000E+00     0.00    0.00000E+00     0.00
    5.00   345.00      -5.98 -999.99   -5.98    0.00000     0.00  LINEAR    6.40662E-04   103.29    0.00000E+00     0.00
   10.00   345.00       0.40 -999.99    0.40    0.00000     0.00  LINEAR    1.33558E-03   -33.12    0.00000E+00     0.00
   15.00   345.00       4.91 -999.99    4.91    0.00000     0.00  LINEAR    2.24496E-03  -162.25    0.00000E+00     0.00
   20.00   345.00       6.14 -999.99    6.14    0.00000     0.00  LINEAR    2.58724E-03    69.72    0.00000E+00     0.00
   25.00   345.00       6.71 -999.99    6.71    0.00000     0.00  LINEAR    2.76342E-03   -51.84    0.00000E+00     0.00
   30.00   345.00       5.48 -999.99    5.48    0.00000     0.00  LINEAR    2.39720E-03  -177.71    0.00000E+00     0.00
   35.00   345.00       0.47 -999.99    0.47    0.00000     0.00  LINEAR    1.34686E-03    71.44    0.00000E+00     0.00
   40.00   345.00     -16.60 -999.99  -16.60    0.00000     0.00  LINEAR    1.88825E-04   177.51    0.00000E+00     0.00
   45.00   345.00      -2.39 -999.99   -2.39    0.00000     0.00  LINEAR    9.68484E-04    59.33    0.00000E+00     0.00
   50.00   345.00      -6.79 -999.99   -6.79    0.00000     0.00  LINEAR    5.83924E-04   -34.51    0.00000E+00     0.00
   55.00   345.00      -4.91 -999.99   -4.91    0.00000     0.00  LINEAR    7.24957E-04    58.41    0.00000E+00     0.00
   60.00   345.00       1.87 -999.99    1.87    0.00000     0.00  LINEAR    1.58245E-03   -10.87    0.00000E+00     0.00
   65.00   345.00      -2.49 -999.99   -2.49    0.00000     0.00  LINEAR    9.58316E-04   -66.17    0.00000E+00     0.00
   70.00   345.00      -8.52 -999.99   -8.52    0.00000     0.00  LINEAR    4.78159E-04    42.22    0.00000E+00     0.00
   75.00   345.00      -5.86 -999.99   -5.86    0.00000     0.00  LINEAR    6.50030E-04    10.57    0.00000E+00     0.00
   80.00   345.00      -7.35 -999.99   -7.35    0.00000     0.00  LINEAR    5.47565E-04   177.99    0.00000E+00     0.00
   85.00   345.00       0.14 -999.99    0.14    0.00000     0.00  LINEAR    1.29614E-03   157.41    0.00000E+00     0.00
   90.00   345.00      -7.74 -999.99   -7.74    0.00000     0.00  LINEAR    5.23436E-04   172.99    0.00000E+00     0.00
    0.00   350.00    -999.99 -999.99 -999.99    0.00000     0.00            0.00000E+00     0.00    0.00000E+00     0.00
    5.00   350.00      -5.92 -999.99   -5.92    0.00000     0.00  LINEAR    6.45758E-04   107.84    0.00000E+00     0.00
   10.00   350.00       0.42 -999.99    0.42    0.00000     0.00  LINEAR    1.33898E-03   -23.45    0.00000E+00     0.00
   15.00   350.00       4.85 -999.99    4.85    0.00000     0.00  LINEAR    2.23035E-03  -149.13    0.00000E+00     0.00
   20.00   350.00       6.16 -999.99    6.16    0.00000     0.00  LINEAR    2.59431E-03    87.91    0.00000E+00     0.00
   25.00   350.00       6.79 -999.99    6.79    0.00000     0.00  LINEAR    2.78918E-03   -29.06    0.00000E+00     0.00
   30.00   350.00       5.27 -999.99    5.27    0.00000     0.00  LINEAR    2.33979E-03  -150.55    0.00000E+00     0.00
   35.00   350.00       0.49 -999.99    0.49    0.00000     0.00  LINEAR    1.34993E-03   101.08    0.00000E+00     0.00
   40.00   350.00     -18.69 -999.99  -18.69    0.00000     0.00  LINEAR    1.48279E-04  -170.23    0.00000E+00     0.00
   45.00   350.00      -2.95 -999.99   -2.95    0.00000     0.00  LINEAR    9.08960E-04    91.80    0.00000E+00     0.00
   50.00   350.00      -6.83 -999.99   -6.83    0.00000     0.00  LINEAR    5.81104E-04     0.02    0.00000E+00     0.00
   55.00   350.00      -5.83 -999.99   -5.83    0.00000     0.00  LINEAR    6.52167E-04   105.31    0.00000E+00     0.00
   60.00   350.00       0.75 -999.99    0.75    0.00000     0.00  LINEAR    1.39077E-03    29.46    0.00000E+00     0.00
   65.00   350.00      -3.68 -999.99   -3.68    0.00000     0.00  LINEAR    8.35710E-04   -27.36    0.00000E+00     0.00
   70.00   350.00      -7.34 -999.99   -7.34    0.00000     0.00  LINEAR    5.47830E-04    92.02    0.00000E+00     0.00
   75.00   350.00      -5.13 -999.99   -5.13    0.00000     0.00  LINEAR    7.06829E-04    53.43    0.00000E+00     0.00
   80.00   350.00      -6.44 -999.99   -6.44    0.00000     0.00  LINEAR    6.07754E-04  -124.96    0.00000E+00     0.00
   85.00   350.00       0.71 -999.99    0.71    0.00000     0.00  LINEAR    1.38468E-03  -149.20    0.00000E+00     0.00
   90.00   350.00      -7.72 -999.99   -7.72    0.00000     0.00  LINEAR    5.24292E-04  -129.98    0.00000E+00     0.00
    0.00   355.00    -999.99 -999.99 -999.99    0.00000     0.00            0.00000E+00     0.00    0.00000E+00     0.00
    5.00   355.00      -5.85 -999.99   -5.85    0.00000     0.00  LINEAR    6.50660E-04   113.38    0.00000E+00     0.00
   10.00   355.00       0.48 -999.99    0.48    0.00000     0.00  LINEAR    1.34796E-03   -11.92    0.00000E+00     0.00
   15.00   355.00       4.76 -999.99    4.76    0.00000     0.00  LINEAR    2.20816E-03  -133.32    0.00000E+00     0.00
   20.00   355.00       6.26 -999.99    6.26    0.00000     0.00  LINEAR    2.62249E-03   110.09    0.00000E+00     0.00
   25.00   355.00       6.99 -999.99    6.99    0.00000     0.00  LINEAR    2.85183E-03    -2.66    0.00000E+00     0.00
   30.00   355.00       5.29 -999.99    5.29    0.00000     0.00  LINEAR    2.34573E-03  -117.16    0.00000E+00     0.00
   35.00   355.00       0.54 -999.99    0.54    0.00000     0.00  LINEAR    1.35812E-03   137.35    0.00000E+00     0.00
   40.00   355.00     -23.82 -999.99  -23.82    0.00000     0.00  LINEAR    8.21524E-05  -152.22    0.00000E+00     0.00
   45.00   355.00      -3.08 -999.99   -3.08    0.00000     0.00  LINEAR    8.94529E-04   135.73    0.00000E+00     0.00
   50.00   355.00      -6.88 -999.99   -6.88    0.00000     0.00  LINEAR    5.77847E-04    46.05    0.00000E+00     0.00
   55.00   355.00      -5.67 -999.99   -5.67    0.00000     0.00  LINEAR    6.64346E-04   161.33    0.00000E+00     0.00
   60.00   355.00       0.32 -999.99    0.32    0.00000     0.00  LINEAR    1.32309E-03    89.72    0.00000E+00     0.00
   65.00   355.00      -3.83 -999.99   -3.83    0.00000     0.00  LINEAR    8.20575E-04    35.62    0.00000E+00     0.00
   70.00   355.00      -8.93 -999.99   -8.93    0.00000     0.00  LINEAR    4.56627E-04   136.80    0.00000E+00     0.00
   75.00   355.00      -6.41 -999.99   -6.41    0.00000     0.00  LINEAR    6.09680E-04   107.82    0.00000E+00     0.00
   80.00   355.00      -6.71 -999.99   -6.71    0.00000     0.00  LINEAR    5.89235E-04   -76.73    0.00000E+00     0.00
   85.00   355.00       0.53 -999.99    0.53    0.00000     0.00  LINEAR    1.35590E-03   -95.82    0.00000E+00     0.00
   90.00   355.00      -7.64 -999.99   -7.64    0.00000     0.00  LINEAR    5.29584E-04   -73.00    0.00000E+00     0.00






 ***** DATA CARD NO. 16   EN   0     0     0     0  0.00000E+00  0.00000E+00  0.00000E+00  0.00000E+00  0.00000E+00  0.00000E+00

 RUN TIME =     0.219
