1



                                 *********************************************

                                    NUMERICAL ELECTROMAGNETICS CODE (NEC-2D)

                                 *********************************************




                                     - - - - COMMENTS - - - -


                                                                                                     
                                                                                                     




                                 - - - STRUCTURE SPECIFICATION - - -

                                     COORDINATES MUST BE INPUT IN
                                     METERS OR BE SCALED TO METERS
                                     BEFORE STRUCTURE INPUT IS ENDED


  WIRE                                                                               NO. OF    FIRST  LAST     TAG
  NO.        X1         Y1         Z1          X2         Y2         Z2      RADIUS   SEG.     SEG.   SEG.     NO.
     1   -7.50000   -5.00000   -5.00000    -7.50000   -5.00000    5.00000    0.00100     20        1    20     101
     2   -2.50000   -5.00000   -5.00000    -2.50000   -5.00000    5.00000    0.00100     20       21    40     102
     3    2.50000   -5.00000   -5.00000     2.50000   -5.00000    5.00000    0.00100     20       41    60     103
     4    7.50000   -5.00000   -5.00000     7.50000   -5.00000    5.00000    0.00100     20       61    80     104
     5   -7.50000    0.00000   -5.00000    -7.50000    0.00000    5.00000    0.00100     20       81   100     201
     6   -2.50000    0.00000   -5.00000    -2.50000    0.00000    5.00000    0.00100     20      101   120     202
     7    2.50000    0.00000   -5.00000     2.50000    0.00000    5.00000    0.00100     20      121   140     203
     8    7.50000    0.00000   -5.00000     7.50000    0.00000    5.00000    0.00100     20      141   160     204
     9   -7.50000    5.00000   -5.00000    -7.50000    5.00000    5.00000    0.00100     20      161   180     301
    10   -2.50000    5.00000   -5.00000    -2.50000    5.00000    5.00000    0.00100     20      181   200     302
    11    2.50000    5.00000   -5.00000     2.50000    5.00000    5.00000    0.00100     20      201   220     303
    12    7.50000    5.00000   -5.00000     7.50000    5.00000    5.00000    0.00100     20      221   240     304

   TOTAL SEGMENTS USED=  240     NO. SEG. IN A SYMMETRIC CELL=  240     SYMMETRY FLAG=  0


         - MULTIPLE WIRE JUNCTIONS -
 JUNCTION    SEGMENTS  (- FOR END 1, + FOR END 2)
  NONE




                                 - - - - SEGMENTATION DATA - - - -

                                        COORDINATES IN METERS

                         I+ AND I- INDICATE THE SEGMENTS BEFORE AND AFTER I


  SEG.   COORDINATES OF SEG. CENTER     SEG.     ORIENTATION ANGLES    WIRE    CONNECTION DATA   TAG
  NO.       X         Y         Z       LENGTH     ALPHA     BETA      RADIUS    I-   I    I+    NO.
     1  -7.50000  -5.00000  -4.75000   0.50000   90.00000   0.00000   0.00100     0    1    2    101
     2  -7.50000  -5.00000  -4.25000   0.50000   90.00000   0.00000   0.00100     1    2    3    101
     3  -7.50000  -5.00000  -3.75000   0.50000   90.00000   0.00000   0.00100     2    3    4    101
     4  -7.50000  -5.00000  -3.25000   0.50000   90.00000   0.00000   0.00100     3    4    5    101
     5  -7.50000  -5.00000  -2.75000   0.50000   90.00000   0.00000   0.00100     4    5    6    101
     6  -7.50000  -5.00000  -2.25000   0.50000   90.00000   0.00000   0.00100     5    6    7    101
     7  -7.50000  -5.00000  -1.75000   0.50000   90.00000   0.00000   0.00100     6    7    8    101
     8  -7.50000  -5.00000  -1.25000   0.50000   90.00000   0.00000   0.00100     7    8    9    101
     9  -7.50000  -5.00000  -0.75000   0.50000   90.00000   0.00000   0.00100     8    9   10    101
    10  -7.50000  -5.00000  -0.25000   0.50000   90.00000   0.00000   0.00100     9   10   11    101
    11  -7.50000  -5.00000   0.25000   0.50000   90.00000   0.00000   0.00100    10   11   12    101
    12  -7.50000  -5.00000   0.75000   0.50000   90.00000   0.00000   0.00100    11   12   13    101
    13  -7.50000  -5.00000   1.25000   0.50000   90.00000   0.00000   0.00100    12   13   14    101
    14  -7.50000  -5.00000   1.75000   0.50000   90.00000   0.00000   0.00100    13   14   15    101
    15  -7.50000  -5.00000   2.25000   0.50000   90.00000   0.00000   0.00100    14   15   16    101
    16  -7.50000  -5.00000   2.75000   0.50000   90.00000   0.00000   0.00100    15   16   17    101
    17  -7.50000  -5.00000   3.25000   0.50000   90.00000   0.00000   0.00100    16   17   18    101
    18  -7.50000  -5.00000   3.75000   0.50000   90.00000   0.00000   0.00100    17   18   19    101
    19  -7.50000  -5.00000   4.25000   0.50000   90.00000   0.00000   0.00100    18   19   20    101
    20  -7.50000  -5.00000   4.75000   0.50000   90.00000   0.00000   0.00100    19   20    0    101
    21  -2.50000  -5.00000  -4.75000   0.50000   90.00000   0.00000   0.00100     0   21   22    102
    22  -2.50000  -5.00000  -4.25000   0.50000   90.00000   0.00000   0.00100    21   22   23    102
    23  -2.50000  -5.00000  -3.75000   0.50000   90.00000   0.00000   0.00100    22   23   24    102
    24  -2.50000  -5.00000  -3.25000   0.50000   90.00000   0.00000   0.00100    23   24   25    102
    25  -2.50000  -5.00000  -2.75000   0.50000   90.00000   0.00000   0.00100    24   25   26    102
    26  -2.50000  -5.00000  -2.25000   0.50000   90.00000   0.00000   0.00100    25   26   27    102
    27  -2.50000  -5.00000  -1.75000   0.50000   90.00000   0.00000   0.00100    26   27   28    102
    28  -2.50000  -5.00000  -1.25000   0.50000   90.00000   0.00000   0.00100    27   28   29    102
    29  -2.50000  -5.00000  -0.75000   0.50000   90.00000   0.00000   0.00100    28   29   30    102
    30  -2.50000  -5.00000  -0.25000   0.50000   90.00000   0.00000   0.00100    29   30   31    102
    31  -2.50000  -5.00000   0.25000   0.50000   90.00000   0.00000   0.00100    30   31   32    102
    32  -2.50000  -5.00000   0.75000   0.50000   90.00000   0.00000   0.00100    31   32   33    102
    33  -2.50000  -5.00000   1.25000   0.50000   90.00000   0.00000   0.00100    32   33   34    102
    34  -2.50000  -5.00000   1.75000   0.50000   90.00000   0.00000   0.00100    33   34   35    102
    35  -2.50000  -5.00000   2.25000   0.50000   90.00000   0.00000   0.00100    34   35   36    102
    36  -2.50000  -5.00000   2.75000   0.50000   90.00000   0.00000   0.00100    35   36   37    102
    37  -2.50000  -5.00000   3.25000   0.50000   90.00000   0.00000   0.00100    36   37   38    102
    38  -2.50000  -5.00000   3.75000   0.50000   90.00000   0.00000   0.00100    37   38   39    102
    39  -2.50000  -5.00000   4.25000   0.50000   90.00000   0.00000   0.00100    38   39   40    102
    40  -2.50000  -5.00000   4.75000   0.50000   90.00000   0.00000   0.00100    39   40    0    102
    41   2.50000  -5.00000  -4.75000   0.50000   90.00000   0.00000   0.00100     0   41   42    103
    42   2.50000  -5.00000  -4.25000   0.50000   90.00000   0.00000   0.00100    41   42   43    103
    43   2.50000  -5.00000  -3.75000   0.50000   90.00000   0.00000   0.00100    42   43   44    103
    44   2.50000  -5.00000  -3.25000   0.50000   90.00000   0.00000   0.00100    43   44   45    103
    45   2.50000  -5.00000  -2.75000   0.50000   90.00000   0.00000   0.00100    44   45   46    103
    46   2.50000  -5.00000  -2.25000   0.50000   90.00000   0.00000   0.00100    45   46   47    103
    47   2.50000  -5.00000  -1.75000   0.50000   90.00000   0.00000   0.00100    46   47   48    103
    48   2.50000  -5.00000  -1.25000   0.50000   90.00000   0.00000   0.00100    47   48   49    103
    49   2.50000  -5.00000  -0.75000   0.50000   90.00000   0.00000   0.00100    48   49   50    103
    50   2.50000  -5.00000  -0.25000   0.50000   90.00000   0.00000   0.00100    49   50   51    103
    51   2.50000  -5.00000   0.25000   0.50000   90.00000   0.00000   0.00100    50   51   52    103
    52   2.50000  -5.00000   0.75000   0.50000   90.00000   0.00000   0.00100    51   52   53    103
    53   2.50000  -5.00000   1.25000   0.50000   90.00000   0.00000   0.00100    52   53   54    103
    54   2.50000  -5.00000   1.75000   0.50000   90.00000   0.00000   0.00100    53   54   55    103
    55   2.50000  -5.00000   2.25000   0.50000   90.00000   0.00000   0.00100    54   55   56    103
    56   2.50000  -5.00000   2.75000   0.50000   90.00000   0.00000   0.00100    55   56   57    103
    57   2.50000  -5.00000   3.25000   0.50000   90.00000   0.00000   0.00100    56   57   58    103
    58   2.50000  -5.00000   3.75000   0.50000   90.00000   0.00000   0.00100    57   58   59    103
    59   2.50000  -5.00000   4.25000   0.50000   90.00000   0.00000   0.00100    58   59   60    103
    60   2.50000  -5.00000   4.75000   0.50000   90.00000   0.00000   0.00100    59   60    0    103
    61   7.50000  -5.00000  -4.75000   0.50000   90.00000   0.00000   0.00100     0   61   62    104
    62   7.50000  -5.00000  -4.25000   0.50000   90.00000   0.00000   0.00100    61   62   63    104
    63   7.50000  -5.00000  -3.75000   0.50000   90.00000   0.00000   0.00100    62   63   64    104
    64   7.50000  -5.00000  -3.25000   0.50000   90.00000   0.00000   0.00100    63   64   65    104
    65   7.50000  -5.00000  -2.75000   0.50000   90.00000   0.00000   0.00100    64   65   66    104
    66   7.50000  -5.00000  -2.25000   0.50000   90.00000   0.00000   0.00100    65   66   67    104
    67   7.50000  -5.00000  -1.75000   0.50000   90.00000   0.00000   0.00100    66   67   68    104
    68   7.50000  -5.00000  -1.25000   0.50000   90.00000   0.00000   0.00100    67   68   69    104
    69   7.50000  -5.00000  -0.75000   0.50000   90.00000   0.00000   0.00100    68   69   70    104
    70   7.50000  -5.00000  -0.25000   0.50000   90.00000   0.00000   0.00100    69   70   71    104
    71   7.50000  -5.00000   0.25000   0.50000   90.00000   0.00000   0.00100    70   71   72    104
    72   7.50000  -5.00000   0.75000   0.50000   90.00000   0.00000   0.00100    71   72   73    104
    73   7.50000  -5.00000   1.25000   0.50000   90.00000   0.00000   0.00100    72   73   74    104
    74   7.50000  -5.00000   1.75000   0.50000   90.00000   0.00000   0.00100    73   74   75    104
    75   7.50000  -5.00000   2.25000   0.50000   90.00000   0.00000   0.00100    74   75   76    104
    76   7.50000  -5.00000   2.75000   0.50000   90.00000   0.00000   0.00100    75   76   77    104
    77   7.50000  -5.00000   3.25000   0.50000   90.00000   0.00000   0.00100    76   77   78    104
    78   7.50000  -5.00000   3.75000   0.50000   90.00000   0.00000   0.00100    77   78   79    104
    79   7.50000  -5.00000   4.25000   0.50000   90.00000   0.00000   0.00100    78   79   80    104
    80   7.50000  -5.00000   4.75000   0.50000   90.00000   0.00000   0.00100    79   80    0    104
    81  -7.50000   0.00000  -4.75000   0.50000   90.00000   0.00000   0.00100     0   81   82    201
    82  -7.50000   0.00000  -4.25000   0.50000   90.00000   0.00000   0.00100    81   82   83    201
    83  -7.50000   0.00000  -3.75000   0.50000   90.00000   0.00000   0.00100    82   83   84    201
    84  -7.50000   0.00000  -3.25000   0.50000   90.00000   0.00000   0.00100    83   84   85    201
    85  -7.50000   0.00000  -2.75000   0.50000   90.00000   0.00000   0.00100    84   85   86    201
    86  -7.50000   0.00000  -2.25000   0.50000   90.00000   0.00000   0.00100    85   86   87    201
    87  -7.50000   0.00000  -1.75000   0.50000   90.00000   0.00000   0.00100    86   87   88    201
    88  -7.50000   0.00000  -1.25000   0.50000   90.00000   0.00000   0.00100    87   88   89    201
    89  -7.50000   0.00000  -0.75000   0.50000   90.00000   0.00000   0.00100    88   89   90    201
    90  -7.50000   0.00000  -0.25000   0.50000   90.00000   0.00000   0.00100    89   90   91    201
    91  -7.50000   0.00000   0.25000   0.50000   90.00000   0.00000   0.00100    90   91   92    201
    92  -7.50000   0.00000   0.75000   0.50000   90.00000   0.00000   0.00100    91   92   93    201
    93  -7.50000   0.00000   1.25000   0.50000   90.00000   0.00000   0.00100    92   93   94    201
    94  -7.50000   0.00000   1.75000   0.50000   90.00000   0.00000   0.00100    93   94   95    201
    95  -7.50000   0.00000   2.25000   0.50000   90.00000   0.00000   0.00100    94   95   96    201
    96  -7.50000   0.00000   2.75000   0.50000   90.00000   0.00000   0.00100    95   96   97    201
    97  -7.50000   0.00000   3.25000   0.50000   90.00000   0.00000   0.00100    96   97   98    201
    98  -7.50000   0.00000   3.75000   0.50000   90.00000   0.00000   0.00100    97   98   99    201
    99  -7.50000   0.00000   4.25000   0.50000   90.00000   0.00000   0.00100    98   99  100    201
   100  -7.50000   0.00000   4.75000   0.50000   90.00000   0.00000   0.00100    99  100    0    201
   101  -2.50000   0.00000  -4.75000   0.50000   90.00000   0.00000   0.00100     0  101  102    202
   102  -2.50000   0.00000  -4.25000   0.50000   90.00000   0.00000   0.00100   101  102  103    202
   103  -2.50000   0.00000  -3.75000   0.50000   90.00000   0.00000   0.00100   102  103  104    202
   104  -2.50000   0.00000  -3.25000   0.50000   90.00000   0.00000   0.00100   103  104  105    202
   105  -2.50000   0.00000  -2.75000   0.50000   90.00000   0.00000   0.00100   104  105  106    202
   106  -2.50000   0.00000  -2.25000   0.50000   90.00000   0.00000   0.00100   105  106  107    202
   107  -2.50000   0.00000  -1.75000   0.50000   90.00000   0.00000   0.00100   106  107  108    202
   108  -2.50000   0.00000  -1.25000   0.50000   90.00000   0.00000   0.00100   107  108  109    202
   109  -2.50000   0.00000  -0.75000   0.50000   90.00000   0.00000   0.00100   108  109  110    202
   110  -2.50000   0.00000  -0.25000   0.50000   90.00000   0.00000   0.00100   109  110  111    202
   111  -2.50000   0.00000   0.25000   0.50000   90.00000   0.00000   0.00100   110  111  112    202
   112  -2.50000   0.00000   0.75000   0.50000   90.00000   0.00000   0.00100   111  112  113    202
   113  -2.50000   0.00000   1.25000   0.50000   90.00000   0.00000   0.00100   112  113  114    202
   114  -2.50000   0.00000   1.75000   0.50000   90.00000   0.00000   0.00100   113  114  115    202
   115  -2.50000   0.00000   2.25000   0.50000   90.00000   0.00000   0.00100   114  115  116    202
   116  -2.50000   0.00000   2.75000   0.50000   90.00000   0.00000   0.00100   115  116  117    202
   117  -2.50000   0.00000   3.25000   0.50000   90.00000   0.00000   0.00100   116  117  118    202
   118  -2.50000   0.00000   3.75000   0.50000   90.00000   0.00000   0.00100   117  118  119    202
   119  -2.50000   0.00000   4.25000   0.50000   90.00000   0.00000   0.00100   118  119  120    202
   120  -2.50000   0.00000   4.75000   0.50000   90.00000   0.00000   0.00100   119  120    0    202
   121   2.50000   0.00000  -4.75000   0.50000   90.00000   0.00000   0.00100     0  121  122    203
   122   2.50000   0.00000  -4.25000   0.50000   90.00000   0.00000   0.00100   121  122  123    203
   123   2.50000   0.00000  -3.75000   0.50000   90.00000   0.00000   0.00100   122  123  124    203
   124   2.50000   0.00000  -3.25000   0.50000   90.00000   0.00000   0.00100   123  124  125    203
   125   2.50000   0.00000  -2.75000   0.50000   90.00000   0.00000   0.00100   124  125  126    203
   126   2.50000   0.00000  -2.25000   0.50000   90.00000   0.00000   0.00100   125  126  127    203
   127   2.50000   0.00000  -1.75000   0.50000   90.00000   0.00000   0.00100   126  127  128    203
   128   2.50000   0.00000  -1.25000   0.50000   90.00000   0.00000   0.00100   127  128  129    203
   129   2.50000   0.00000  -0.75000   0.50000   90.00000   0.00000   0.00100   128  129  130    203
   130   2.50000   0.00000  -0.25000   0.50000   90.00000   0.00000   0.00100   129  130  131    203
   131   2.50000   0.00000   0.25000   0.50000   90.00000   0.00000   0.00100   130  131  132    203
   132   2.50000   0.00000   0.75000   0.50000   90.00000   0.00000   0.00100   131  132  133    203
   133   2.50000   0.00000   1.25000   0.50000   90.00000   0.00000   0.00100   132  133  134    203
   134   2.50000   0.00000   1.75000   0.50000   90.00000   0.00000   0.00100   133  134  135    203
   135   2.50000   0.00000   2.25000   0.50000   90.00000   0.00000   0.00100   134  135  136    203
   136   2.50000   0.00000   2.75000   0.50000   90.00000   0.00000   0.00100   135  136  137    203
   137   2.50000   0.00000   3.25000   0.50000   90.00000   0.00000   0.00100   136  137  138    203
   138   2.50000   0.00000   3.75000   0.50000   90.00000   0.00000   0.00100   137  138  139    203
   139   2.50000   0.00000   4.25000   0.50000   90.00000   0.00000   0.00100   138  139  140    203
   140   2.50000   0.00000   4.75000   0.50000   90.00000   0.00000   0.00100   139  140    0    203
   141   7.50000   0.00000  -4.75000   0.50000   90.00000   0.00000   0.00100     0  141  142    204
   142   7.50000   0.00000  -4.25000   0.50000   90.00000   0.00000   0.00100   141  142  143    204
   143   7.50000   0.00000  -3.75000   0.50000   90.00000   0.00000   0.00100   142  143  144    204
   144   7.50000   0.00000  -3.25000   0.50000   90.00000   0.00000   0.00100   143  144  145    204
   145   7.50000   0.00000  -2.75000   0.50000   90.00000   0.00000   0.00100   144  145  146    204
   146   7.50000   0.00000  -2.25000   0.50000   90.00000   0.00000   0.00100   145  146  147    204
   147   7.50000   0.00000  -1.75000   0.50000   90.00000   0.00000   0.00100   146  147  148    204
   148   7.50000   0.00000  -1.25000   0.50000   90.00000   0.00000   0.00100   147  148  149    204
   149   7.50000   0.00000  -0.75000   0.50000   90.00000   0.00000   0.00100   148  149  150    204
   150   7.50000   0.00000  -0.25000   0.50000   90.00000   0.00000   0.00100   149  150  151    204
   151   7.50000   0.00000   0.25000   0.50000   90.00000   0.00000   0.00100   150  151  152    204
   152   7.50000   0.00000   0.75000   0.50000   90.00000   0.00000   0.00100   151  152  153    204
   153   7.50000   0.00000   1.25000   0.50000   90.00000   0.00000   0.00100   152  153  154    204
   154   7.50000   0.00000   1.75000   0.50000   90.00000   0.00000   0.00100   153  154  155    204
   155   7.50000   0.00000   2.25000   0.50000   90.00000   0.00000   0.00100   154  155  156    204
   156   7.50000   0.00000   2.75000   0.50000   90.00000   0.00000   0.00100   155  156  157    204
   157   7.50000   0.00000   3.25000   0.50000   90.00000   0.00000   0.00100   156  157  158    204
   158   7.50000   0.00000   3.75000   0.50000   90.00000   0.00000   0.00100   157  158  159    204
   159   7.50000   0.00000   4.25000   0.50000   90.00000   0.00000   0.00100   158  159  160    204
   160   7.50000   0.00000   4.75000   0.50000   90.00000   0.00000   0.00100   159  160    0    204
   161  -7.50000   5.00000  -4.75000   0.50000   90.00000   0.00000   0.00100     0  161  162    301
   162  -7.50000   5.00000  -4.25000   0.50000   90.00000   0.00000   0.00100   161  162  163    301
   163  -7.50000   5.00000  -3.75000   0.50000   90.00000   0.00000   0.00100   162  163  164    301
   164  -7.50000   5.00000  -3.25000   0.50000   90.00000   0.00000   0.00100   163  164  165    301
   165  -7.50000   5.00000  -2.75000   0.50000   90.00000   0.00000   0.00100   164  165  166    301
   166  -7.50000   5.00000  -2.25000   0.50000   90.00000   0.00000   0.00100   165  166  167    301
   167  -7.50000   5.00000  -1.75000   0.50000   90.00000   0.00000   0.00100   166  167  168    301
   168  -7.50000   5.00000  -1.25000   0.50000   90.00000   0.00000   0.00100   167  168  169    301
   169  -7.50000   5.00000  -0.75000   0.50000   90.00000   0.00000   0.00100   168  169  170    301
   170  -7.50000   5.00000  -0.25000   0.50000   90.00000   0.00000   0.00100   169  170  171    301
   171  -7.50000   5.00000   0.25000   0.50000   90.00000   0.00000   0.00100   170  171  172    301
   172  -7.50000   5.00000   0.75000   0.50000   90.00000   0.00000   0.00100   171  172  173    301
   173  -7.50000   5.00000   1.25000   0.50000   90.00000   0.00000   0.00100   172  173  174    301
   174  -7.50000   5.00000   1.75000   0.50000   90.00000   0.00000   0.00100   173  174  175    301
   175  -7.50000   5.00000   2.25000   0.50000   90.00000   0.00000   0.00100   174  175  176    301
   176  -7.50000   5.00000   2.75000   0.50000   90.00000   0.00000   0.00100   175  176  177    301
   177  -7.50000   5.00000   3.25000   0.50000   90.00000   0.00000   0.00100   176  177  178    301
   178  -7.50000   5.00000   3.75000   0.50000   90.00000   0.00000   0.00100   177  178  179    301
   179  -7.50000   5.00000   4.25000   0.50000   90.00000   0.00000   0.00100   178  179  180    301
   180  -7.50000   5.00000   4.75000   0.50000   90.00000   0.00000   0.00100   179  180    0    301
   181  -2.50000   5.00000  -4.75000   0.50000   90.00000   0.00000   0.00100     0  181  182    302
   182  -2.50000   5.00000  -4.25000   0.50000   90.00000   0.00000   0.00100   181  182  183    302
   183  -2.50000   5.00000  -3.75000   0.50000   90.00000   0.00000   0.00100   182  183  184    302
   184  -2.50000   5.00000  -3.25000   0.50000   90.00000   0.00000   0.00100   183  184  185    302
   185  -2.50000   5.00000  -2.75000   0.50000   90.00000   0.00000   0.00100   184  185  186    302
   186  -2.50000   5.00000  -2.25000   0.50000   90.00000   0.00000   0.00100   185  186  187    302
   187  -2.50000   5.00000  -1.75000   0.50000   90.00000   0.00000   0.00100   186  187  188    302
   188  -2.50000   5.00000  -1.25000   0.50000   90.00000   0.00000   0.00100   187  188  189    302
   189  -2.50000   5.00000  -0.75000   0.50000   90.00000   0.00000   0.00100   188  189  190    302
   190  -2.50000   5.00000  -0.25000   0.50000   90.00000   0.00000   0.00100   189  190  191    302
   191  -2.50000   5.00000   0.25000   0.50000   90.00000   0.00000   0.00100   190  191  192    302
   192  -2.50000   5.00000   0.75000   0.50000   90.00000   0.00000   0.00100   191  192  193    302
   193  -2.50000   5.00000   1.25000   0.50000   90.00000   0.00000   0.00100   192  193  194    302
   194  -2.50000   5.00000   1.75000   0.50000   90.00000   0.00000   0.00100   193  194  195    302
   195  -2.50000   5.00000   2.25000   0.50000   90.00000   0.00000   0.00100   194  195  196    302
   196  -2.50000   5.00000   2.75000   0.50000   90.00000   0.00000   0.00100   195  196  197    302
   197  -2.50000   5.00000   3.25000   0.50000   90.00000   0.00000   0.00100   196  197  198    302
   198  -2.50000   5.00000   3.75000   0.50000   90.00000   0.00000   0.00100   197  198  199    302
   199  -2.50000   5.00000   4.25000   0.50000   90.00000   0.00000   0.00100   198  199  200    302
   200  -2.50000   5.00000   4.75000   0.50000   90.00000   0.00000   0.00100   199  200    0    302
   201   2.50000   5.00000  -4.75000   0.50000   90.00000   0.00000   0.00100     0  201  202    303
   202   2.50000   5.00000  -4.25000   0.50000   90.00000   0.00000   0.00100   201  202  203    303
   203   2.50000   5.00000  -3.75000   0.50000   90.00000   0.00000   0.00100   202  203  204    303
   204   2.50000   5.00000  -3.25000   0.50000   90.00000   0.00000   0.00100   203  204  205    303
   205   2.50000   5.00000  -2.75000   0.50000   90.00000   0.00000   0.00100   204  205  206    303
   206   2.50000   5.00000  -2.25000   0.50000   90.00000   0.00000   0.00100   205  206  207    303
   207   2.50000   5.00000  -1.75000   0.50000   90.00000   0.00000   0.00100   206  207  208    303
   208   2.50000   5.00000  -1.25000   0.50000   90.00000   0.00000   0.00100   207  208  209    303
   209   2.50000   5.00000  -0.75000   0.50000   90.00000   0.00000   0.00100   208  209  210    303
   210   2.50000   5.00000  -0.25000   0.50000   90.00000   0.00000   0.00100   209  210  211    303
   211   2.50000   5.00000   0.25000   0.50000   90.00000   0.00000   0.00100   210  211  212    303
   212   2.50000   5.00000   0.75000   0.50000   90.00000   0.00000   0.00100   211  212  213    303
   213   2.50000   5.00000   1.25000   0.50000   90.00000   0.00000   0.00100   212  213  214    303
   214   2.50000   5.00000   1.75000   0.50000   90.00000   0.00000   0.00100   213  214  215    303
   215   2.50000   5.00000   2.25000   0.50000   90.00000   0.00000   0.00100   214  215  216    303
   216   2.50000   5.00000   2.75000   0.50000   90.00000   0.00000   0.00100   215  216  217    303
   217   2.50000   5.00000   3.25000   0.50000   90.00000   0.00000   0.00100   216  217  218    303
   218   2.50000   5.00000   3.75000   0.50000   90.00000   0.00000   0.00100   217  218  219    303
   219   2.50000   5.00000   4.25000   0.50000   90.00000   0.00000   0.00100   218  219  220    303
   220   2.50000   5.00000   4.75000   0.50000   90.00000   0.00000   0.00100   219  220    0    303
   221   7.50000   5.00000  -4.75000   0.50000   90.00000   0.00000   0.00100     0  221  222    304
   222   7.50000   5.00000  -4.25000   0.50000   90.00000   0.00000   0.00100   221  222  223    304
   223   7.50000   5.00000  -3.75000   0.50000   90.00000   0.00000   0.00100   222  223  224    304
   224   7.50000   5.00000  -3.25000   0.50000   90.00000   0.00000   0.00100   223  224  225    304
   225   7.50000   5.00000  -2.75000   0.50000   90.00000   0.00000   0.00100   224  225  226    304
   226   7.50000   5.00000  -2.25000   0.50000   90.00000   0.00000   0.00100   225  226  227    304
   227   7.50000   5.00000  -1.75000   0.50000   90.00000   0.00000   0.00100   226  227  228    304
   228   7.50000   5.00000  -1.25000   0.50000   90.00000   0.00000   0.00100   227  228  229    304
   229   7.50000   5.00000  -0.75000   0.50000   90.00000   0.00000   0.00100   228  229  230    304
   230   7.50000   5.00000  -0.25000   0.50000   90.00000   0.00000   0.00100   229  230  231    304
   231   7.50000   5.00000   0.25000   0.50000   90.00000   0.00000   0.00100   230  231  232    304
   232   7.50000   5.00000   0.75000   0.50000   90.00000   0.00000   0.00100   231  232  233    304
   233   7.50000   5.00000   1.25000   0.50000   90.00000   0.00000   0.00100   232  233  234    304
   234   7.50000   5.00000   1.75000   0.50000   90.00000   0.00000   0.00100   233  234  235    304
   235   7.50000   5.00000   2.25000   0.50000   90.00000   0.00000   0.00100   234  235  236    304
   236   7.50000   5.00000   2.75000   0.50000   90.00000   0.00000   0.00100   235  236  237    304
   237   7.50000   5.00000   3.25000   0.50000   90.00000   0.00000   0.00100   236  237  238    304
   238   7.50000   5.00000   3.75000   0.50000   90.00000   0.00000   0.00100   237  238  239    304
   239   7.50000   5.00000   4.25000   0.50000   90.00000   0.00000   0.00100   238  239  240    304
   240   7.50000   5.00000   4.75000   0.50000   90.00000   0.00000   0.00100   239  240    0    304






 ***** DATA CARD NO.  1   GN  -1     0     0     0  1.00000E+01  1.00000E-02  0.00000E+00  0.00000E+00  0.00000E+00  0.00000E+00
 ***** DATA CARD NO.  2   FR   0     0     0     0  1.50000E+02  0.00000E+00  0.00000E+00  0.00000E+00  0.00000E+00  0.00000E+00
 ***** DATA CARD NO.  3   EX   0   101    10     0  1.00000E-09  0.00000E+00  0.00000E+00  0.00000E+00  0.00000E+00  0.00000E+00
 ***** DATA CARD NO.  4   EX   0   102    10     0 -8.39670E-04  4.41290E-03  0.00000E+00  0.00000E+00  0.00000E+00  0.00000E+00
 ***** DATA CARD NO.  5   EX   0   103    10     0  1.00000E-09  0.00000E+00  0.00000E+00  0.00000E+00  0.00000E+00  0.00000E+00
 ***** DATA CARD NO.  6   EX   0   104    10     0  1.00000E-09  0.00000E+00  0.00000E+00  0.00000E+00  0.00000E+00  0.00000E+00
 ***** DATA CARD NO.  7   EX   0   201    10     0  1.00000E-09  0.00000E+00  0.00000E+00  0.00000E+00  0.00000E+00  0.00000E+00
 ***** DATA CARD NO.  8   EX   0   202    10     0  1.00000E-09  0.00000E+00  0.00000E+00  0.00000E+00  0.00000E+00  0.00000E+00
 ***** DATA CARD NO.  9   EX   0   203    10     0  1.00000E-09  0.00000E+00  0.00000E+00  0.00000E+00  0.00000E+00  0.00000E+00
 ***** DATA CARD NO. 10   EX   0   204    10     0  1.00000E-09  0.00000E+00  0.00000E+00  0.00000E+00  0.00000E+00  0.00000E+00
 ***** DATA CARD NO. 11   EX   0   301    10     0  1.00000E-09  0.00000E+00  0.00000E+00  0.00000E+00  0.00000E+00  0.00000E+00
 ***** DATA CARD NO. 12   EX   0   302    10     0  1.00000E-09  0.00000E+00  0.00000E+00  0.00000E+00  0.00000E+00  0.00000E+00
 ***** DATA CARD NO. 13   EX   0   303    10     0  1.00000E-09  0.00000E+00  0.00000E+00  0.00000E+00  0.00000E+00  0.00000E+00
 ***** DATA CARD NO. 14   EX   0   304    10     0  1.00000E-09  0.00000E+00  0.00000E+00  0.00000E+00  0.00000E+00  0.00000E+00
 ***** DATA CARD NO. 15   RP   0    19    72  1010  0.00000E+00  0.00000E+00  5.00000E+00  5.00000E+00  0.00000E+00  0.00000E+00




                                 - - - - - - FREQUENCY - - - - - -

                                    FREQUENCY= 1.5000E+02 MHZ
                                    WAVELENGTH= 1.9987E+00 METERS




                    APPROXIMATE INTEGRATION EMPLOYED FOR SEGMENTS MORE THAN   1.000 WAVELENGTHS APART



                               - - - STRUCTURE IMPEDANCE LOADING - - -

                                   THIS STRUCTURE IS NOT LOADED



                                  - - - ANTENNA ENVIRONMENT - - -

                                            FREE SPACE



                                - - - MATRIX TIMING - - -

                        FILL=    0.031 SEC.,  FACTOR=    0.016 SEC.



                                          - - - ANTENNA INPUT PARAMETERS - - -

   TAG   SEG.    VOLTAGE (VOLTS)         CURRENT (AMPS)         IMPEDANCE (OHMS)        ADMITTANCE (MHOS)      POWER
   NO.   NO.    REAL        IMAG.       REAL        IMAG.       REAL        IMAG.       REAL        IMAG.     (WATTS)
   101    10 1.00000E-09 0.00000E+00-1.06816E-07-1.36863E-07-3.54385E-03 4.54074E-03-1.06816E+02-1.36863E+02-5.34079E-17
   102    30-8.39670E-04 4.41290E-03 3.57184E-06 1.42297E-05 2.77804E+02 1.28741E+02 2.96327E-03-1.37325E-03 2.98975E-08
   103    50 1.00000E-09 0.00000E+00-1.03238E-07-1.38895E-07-3.44701E-03 4.63757E-03-1.03238E+02-1.38895E+02-5.16190E-17
   104    70 1.00000E-09 0.00000E+00-3.40129E-08 8.90206E-08-3.74528E-03-9.80237E-03-3.40129E+01 8.90206E+01-1.70064E-17
   201    90 1.00000E-09 0.00000E+00-2.71611E-07 3.43274E-07-1.41752E-03-1.79153E-03-2.71611E+02 3.43274E+02-1.35806E-16
   202   110 1.00000E-09 0.00000E+00-7.66771E-08-1.39531E-07-3.02495E-03 5.50456E-03-7.66771E+01-1.39531E+02-3.83385E-17
   203   130 1.00000E-09 0.00000E+00-2.75563E-07 3.44346E-07-1.41671E-03-1.77033E-03-2.75563E+02 3.44346E+02-1.37781E-16
   204   150 1.00000E-09 0.00000E+00 1.23233E-07-2.29057E-09 8.11191E-03 1.50779E-04 1.23233E+02-2.29057E+00 6.16165E-17
   301   170 1.00000E-09 0.00000E+00 1.42408E-07 3.67821E-09 7.01738E-03-1.81249E-04 1.42408E+02 3.67821E+00 7.12042E-17
   302   190 1.00000E-09 0.00000E+00-5.79185E-08 1.09369E-07-3.78155E-03-7.14078E-03-5.79185E+01 1.09369E+02-2.89592E-17
   303   210 1.00000E-09 0.00000E+00 1.42909E-07 1.45431E-08 6.92575E-03-7.04797E-04 1.42909E+02 1.45431E+01 7.14544E-17
   304   230 1.00000E-09 0.00000E+00-4.75031E-10-1.40130E-07-2.41912E-05 7.13616E-03-4.75031E-01-1.40130E+02-2.37516E-19



                             - - - CURRENTS AND LOCATION - - -

                                 DISTANCES IN WAVELENGTHS


  SEG.  TAG    COORD. OF SEG. CENTER     SEG.            - - - CURRENT (AMPS) - - -
  NO.   NO.     X        Y        Z      LENGTH     REAL        IMAG.       MAG.        PHASE
     1  101  -3.7525  -2.5017  -2.3766  0.25017  -1.0530E-07 -1.9586E-07  2.2237E-07 -118.263
     2  101  -3.7525  -2.5017  -2.1264  0.25017  -3.2118E-08 -7.2593E-09  3.2928E-08 -167.264
     3  101  -3.7525  -2.5017  -1.8763  0.25017   1.4522E-07  4.4765E-07  4.7062E-07   72.027
     4  101  -3.7525  -2.5017  -1.6261  0.25017   2.9543E-08  2.0994E-07  2.1201E-07   81.990
     5  101  -3.7525  -2.5017  -1.3759  0.25017  -9.9594E-08 -4.0648E-07  4.1851E-07 -103.767
     6  101  -3.7525  -2.5017  -1.1258  0.25017   1.4752E-07 -3.5605E-07  3.8540E-07  -67.494
     7  101  -3.7525  -2.5017  -0.8756  0.25017   3.6344E-07  1.9451E-07  4.1222E-07   28.156
     8  101  -3.7525  -2.5017  -0.6254  0.25017   4.3922E-08  2.2784E-07  2.3204E-07   79.089
     9  101  -3.7525  -2.5017  -0.3753  0.25017  -3.4355E-07 -1.8905E-07  3.9213E-07 -151.177
    10  101  -3.7525  -2.5017  -0.1251  0.25017  -1.0682E-07 -1.3686E-07  1.7361E-07 -127.970
    11  101  -3.7525  -2.5017   0.1251  0.25017   3.8529E-07  2.9272E-07  4.8388E-07   37.225
    12  101  -3.7525  -2.5017   0.3753  0.25017   3.2824E-07  2.0335E-07  3.8612E-07   31.779
    13  101  -3.7525  -2.5017   0.6254  0.25017  -1.0735E-07 -2.6908E-07  2.8970E-07 -111.750
    14  101  -3.7525  -2.5017   0.8756  0.25017  -1.7864E-07 -1.8250E-07  2.5538E-07 -134.387
    15  101  -3.7525  -2.5017   1.1258  0.25017   7.2942E-08  3.1611E-07  3.2441E-07   77.006
    16  101  -3.7525  -2.5017   1.3759  0.25017   5.5089E-08  2.0199E-07  2.0937E-07   74.745
    17  101  -3.7525  -2.5017   1.6261  0.25017  -1.8661E-07 -4.1738E-07  4.5719E-07 -114.089
    18  101  -3.7525  -2.5017   1.8763  0.25017  -1.5396E-07 -4.1469E-07  4.4234E-07 -110.369
    19  101  -3.7525  -2.5017   2.1264  0.25017   8.2861E-08  2.2733E-07  2.4197E-07   69.974
    20  101  -3.7525  -2.5017   2.3766  0.25017   8.6544E-08  3.1609E-07  3.2772E-07   74.688
    21  102  -1.2508  -2.5017  -2.3766  0.25017   5.6641E-06  1.3908E-05  1.5017E-05   67.841
    22  102  -1.2508  -2.5017  -2.1264  0.25017   3.1938E-06  1.2829E-05  1.3221E-05   76.021
    23  102  -1.2508  -2.5017  -1.8763  0.25017  -6.6610E-06 -1.3547E-05  1.5096E-05 -116.183
    24  102  -1.2508  -2.5017  -1.6261  0.25017  -2.6979E-06 -1.2663E-05  1.2947E-05 -102.027
    25  102  -1.2508  -2.5017  -1.3759  0.25017   7.0390E-06  1.3392E-05  1.5130E-05   62.274
    26  102  -1.2508  -2.5017  -1.1258  0.25017   2.4057E-06  1.2660E-05  1.2886E-05   79.240
    27  102  -1.2508  -2.5017  -0.8756  0.25017  -7.2842E-06 -1.3394E-05  1.5247E-05 -118.539
    28  102  -1.2508  -2.5017  -0.6254  0.25017  -1.9894E-06 -1.2825E-05  1.2978E-05  -98.817
    29  102  -1.2508  -2.5017  -0.3753  0.25017   7.7263E-06  1.3570E-05  1.5616E-05   60.345
    30  102  -1.2508  -2.5017  -0.1251  0.25017   3.5718E-06  1.4230E-05  1.4671E-05   75.909
    31  102  -1.2508  -2.5017   0.1251  0.25017   2.4038E-06 -9.9721E-06  1.0258E-05  -76.447
    32  102  -1.2508  -2.5017   0.3753  0.25017  -1.7064E-06 -1.2709E-05  1.2823E-05  -97.647
    33  102  -1.2508  -2.5017   0.6254  0.25017  -2.0833E-06  1.0316E-05  1.0525E-05  101.417
    34  102  -1.2508  -2.5017   0.8756  0.25017   1.6308E-06  1.2563E-05  1.2668E-05   82.604
    35  102  -1.2508  -2.5017   1.1258  0.25017   1.7947E-06 -1.0470E-05  1.0623E-05  -80.273
    36  102  -1.2508  -2.5017   1.3759  0.25017  -1.4962E-06 -1.2531E-05  1.2620E-05  -96.809
    37  102  -1.2508  -2.5017   1.6261  0.25017  -1.5447E-06  1.0596E-05  1.0708E-05   98.294
    38  102  -1.2508  -2.5017   1.8763  0.25017   1.2229E-06  1.2504E-05  1.2564E-05   84.415
    39  102  -1.2508  -2.5017   2.1264  0.25017   1.1965E-06 -1.0954E-05  1.1019E-05  -83.766
    40  102  -1.2508  -2.5017   2.3766  0.25017  -3.9757E-07 -1.2526E-05  1.2532E-05  -91.818
    41  103   1.2508  -2.5017  -2.3766  0.25017  -9.8233E-08 -1.9681E-07  2.1996E-07 -116.525
    42  103   1.2508  -2.5017  -2.1264  0.25017  -2.4861E-08 -7.9993E-09  2.6116E-08 -162.164
    43  103   1.2508  -2.5017  -1.8763  0.25017   1.3964E-07  4.4825E-07  4.6950E-07   72.698
    44  103   1.2508  -2.5017  -1.6261  0.25017   2.3535E-08  2.0908E-07  2.1040E-07   83.578
    45  103   1.2508  -2.5017  -1.3759  0.25017  -9.2892E-08 -4.1017E-07  4.2056E-07 -102.761
    46  103   1.2508  -2.5017  -1.1258  0.25017   1.5507E-07 -3.5907E-07  3.9112E-07  -66.642
    47  103   1.2508  -2.5017  -0.8756  0.25017   3.5757E-07  1.9459E-07  4.0709E-07   28.555
    48  103   1.2508  -2.5017  -0.6254  0.25017   3.4264E-08  2.2805E-07  2.3061E-07   81.455
    49  103   1.2508  -2.5017  -0.3753  0.25017  -3.4321E-07 -1.9132E-07  3.9293E-07 -150.863
    50  103   1.2508  -2.5017  -0.1251  0.25017  -1.0324E-07 -1.3890E-07  1.7306E-07 -126.623
    51  103   1.2508  -2.5017   0.1251  0.25017   3.8247E-07  2.9357E-07  4.8215E-07   37.509
    52  103   1.2508  -2.5017   0.3753  0.25017   3.2752E-07  2.0452E-07  3.8613E-07   31.982
    53  103   1.2508  -2.5017   0.6254  0.25017  -9.8679E-08 -2.7015E-07  2.8761E-07 -110.066
    54  103   1.2508  -2.5017   0.8756  0.25017  -1.7353E-07 -1.8314E-07  2.5230E-07 -133.455
    55  103   1.2508  -2.5017   1.1258  0.25017   6.4454E-08  3.1872E-07  3.2517E-07   78.567
    56  103   1.2508  -2.5017   1.3759  0.25017   4.6691E-08  2.0525E-07  2.1050E-07   77.185
    57  103   1.2508  -2.5017   1.6261  0.25017  -1.8236E-07 -4.1681E-07  4.5496E-07 -113.629
    58  103   1.2508  -2.5017   1.8763  0.25017  -1.4930E-07 -4.1509E-07  4.4113E-07 -109.782
    59  103   1.2508  -2.5017   2.1264  0.25017   7.5293E-08  2.2872E-07  2.4080E-07   71.779
    60  103   1.2508  -2.5017   2.3766  0.25017   7.9312E-08  3.1747E-07  3.2722E-07   75.973
    61  104   3.7525  -2.5017  -2.3766  0.25017  -3.9669E-08  1.2748E-07  1.3351E-07  107.285
    62  104   3.7525  -2.5017  -2.1264  0.25017  -5.8060E-08  9.1841E-08  1.0865E-07  122.300
    63  104   3.7525  -2.5017  -1.8763  0.25017  -2.6674E-08 -1.7546E-07  1.7747E-07  -98.644
    64  104   3.7525  -2.5017  -1.6261  0.25017  -1.5586E-08 -1.7888E-07  1.7956E-07  -94.979
    65  104   3.7525  -2.5017  -1.3759  0.25017  -3.1819E-08  7.1737E-08  7.8477E-08  113.920
    66  104   3.7525  -2.5017  -1.1258  0.25017  -4.1545E-08  1.0860E-07  1.1627E-07  110.934
    67  104   3.7525  -2.5017  -0.8756  0.25017  -4.8826E-08 -8.6374E-08  9.9219E-08 -119.479
    68  104   3.7525  -2.5017  -0.6254  0.25017  -7.1311E-08 -8.6091E-08  1.1179E-07 -129.636
    69  104   3.7525  -2.5017  -0.3753  0.25017  -7.8744E-08  1.1151E-07  1.3651E-07  125.228
    70  104   3.7525  -2.5017  -0.1251  0.25017  -3.4013E-08  8.9021E-08  9.5297E-08  110.911
    71  104   3.7525  -2.5017   0.1251  0.25017   3.0413E-08 -1.4028E-07  1.4354E-07  -77.767
    72  104   3.7525  -2.5017   0.3753  0.25017   4.8288E-08 -1.4948E-07  1.5709E-07  -72.097
    73  104   3.7525  -2.5017   0.6254  0.25017   1.4165E-08  5.6436E-08  5.8186E-08   75.911
    74  104   3.7525  -2.5017   0.8756  0.25017  -2.1708E-08  6.5616E-08  6.9114E-08  108.306
    75  104   3.7525  -2.5017   1.1258  0.25017  -3.5203E-08 -9.9317E-08  1.0537E-07 -109.517
    76  104   3.7525  -2.5017   1.3759  0.25017  -3.8552E-08 -2.5765E-08  4.6369E-08 -146.245
    77  104   3.7525  -2.5017   1.6261  0.25017  -2.4266E-08  2.3014E-07  2.3142E-07   96.019
    78  104   3.7525  -2.5017   1.8763  0.25017   2.4619E-08  2.0125E-07  2.0275E-07   83.026
    79  104   3.7525  -2.5017   2.1264  0.25017   6.9465E-08 -8.4635E-08  1.0949E-07  -50.622
    80  104   3.7525  -2.5017   2.3766  0.25017   4.2473E-08 -1.2275E-07  1.2989E-07  -70.914
    81  201  -3.7525   0.0000  -2.3766  0.25017  -3.8037E-07  4.0435E-07  5.5514E-07  133.250
    82  201  -3.7525   0.0000  -2.1264  0.25017  -3.9429E-07  4.5316E-07  6.0068E-07  131.026
    83  201  -3.7525   0.0000  -1.8763  0.25017   3.0321E-07 -3.2159E-07  4.4199E-07  -46.685
    84  201  -3.7525   0.0000  -1.6261  0.25017   4.2406E-07 -4.3891E-07  6.1031E-07  -45.986
    85  201  -3.7525   0.0000  -1.3759  0.25017  -1.1728E-07  2.8232E-07  3.0572E-07  112.559
    86  201  -3.7525   0.0000  -1.1258  0.25017  -1.6910E-07  4.0088E-07  4.3508E-07  112.871
    87  201  -3.7525   0.0000  -0.8756  0.25017   3.3345E-07 -3.1580E-07  4.5925E-07  -43.443
    88  201  -3.7525   0.0000  -0.6254  0.25017   2.9834E-07 -4.8111E-07  5.6610E-07  -58.197
    89  201  -3.7525   0.0000  -0.3753  0.25017  -2.7888E-07  1.6906E-07  3.2612E-07  148.775
    90  201  -3.7525   0.0000  -0.1251  0.25017  -2.7161E-07  3.4327E-07  4.3773E-07  128.352
    91  201  -3.7525   0.0000   0.1251  0.25017   3.3478E-07 -1.8204E-07  3.8107E-07  -28.535
    92  201  -3.7525   0.0000   0.3753  0.25017   3.8888E-07 -1.9978E-07  4.3719E-07  -27.191
    93  201  -3.7525   0.0000   0.6254  0.25017  -1.7800E-07  3.7851E-07  4.1827E-07  115.186
    94  201  -3.7525   0.0000   0.8756  0.25017  -2.5807E-07  3.0146E-07  3.9683E-07  130.565
    95  201  -3.7525   0.0000   1.1258  0.25017   2.1681E-07 -4.2872E-07  4.8043E-07  -63.174
    96  201  -3.7525   0.0000   1.3759  0.25017   1.8003E-07 -4.4005E-07  4.7546E-07  -67.750
    97  201  -3.7525   0.0000   1.6261  0.25017  -3.7361E-07  2.9038E-07  4.7319E-07  142.145
    98  201  -3.7525   0.0000   1.8763  0.25017  -3.2911E-07  3.2328E-07  4.6133E-07  135.512
    99  201  -3.7525   0.0000   2.1264  0.25017   3.0370E-07 -4.0941E-07  5.0976E-07  -53.432
   100  201  -3.7525   0.0000   2.3766  0.25017   3.2479E-07 -4.1827E-07  5.2956E-07  -52.170
   101  202  -1.2508   0.0000  -2.3766  0.25017  -6.1702E-08 -1.8942E-07  1.9922E-07 -108.042
   102  202  -1.2508   0.0000  -2.1264  0.25017   5.8515E-09  1.8490E-09  6.1367E-09   17.536
   103  202  -1.2508   0.0000  -1.8763  0.25017   1.0338E-07  4.4516E-07  4.5700E-07   76.926
   104  202  -1.2508   0.0000  -1.6261  0.25017  -5.4588E-09  2.0032E-07  2.0039E-07   91.561
   105  202  -1.2508   0.0000  -1.3759  0.25017  -5.0750E-08 -4.1209E-07  4.1520E-07  -97.021
   106  202  -1.2508   0.0000  -1.1258  0.25017   2.0244E-07 -3.6047E-07  4.1343E-07  -60.681
   107  202  -1.2508   0.0000  -0.8756  0.25017   3.4721E-07  1.8375E-07  3.9284E-07   27.888
   108  202  -1.2508   0.0000  -0.6254  0.25017   2.2178E-08  2.1531E-07  2.1645E-07   84.119
   109  202  -1.2508   0.0000  -0.3753  0.25017  -3.0589E-07 -1.9542E-07  3.6299E-07 -147.428
   110  202  -1.2508   0.0000  -0.1251  0.25017  -7.6677E-08 -1.3953E-07  1.5921E-07 -118.790
   111  202  -1.2508   0.0000   0.1251  0.25017   3.5104E-07  2.8998E-07  4.5532E-07   39.559
   112  202  -1.2508   0.0000   0.3753  0.25017   3.0327E-07  2.0583E-07  3.6652E-07   34.165
   113  202  -1.2508   0.0000   0.6254  0.25017  -6.7747E-08 -2.5930E-07  2.6800E-07 -104.642
   114  202  -1.2508   0.0000   0.8756  0.25017  -1.5445E-07 -1.7619E-07  2.3430E-07 -131.239
   115  202  -1.2508   0.0000   1.1258  0.25017   2.4872E-08  3.1182E-07  3.1281E-07   85.440
   116  202  -1.2508   0.0000   1.3759  0.25017   2.1259E-08  1.9553E-07  1.9668E-07   83.795
   117  202  -1.2508   0.0000   1.6261  0.25017  -1.4292E-07 -4.2003E-07  4.4368E-07 -108.791
   118  202  -1.2508   0.0000   1.8763  0.25017  -1.2218E-07 -4.2300E-07  4.4029E-07 -106.111
   119  202  -1.2508   0.0000   2.1264  0.25017   3.0855E-08  2.0944E-07  2.1170E-07   81.619
   120  202  -1.2508   0.0000   2.3766  0.25017   4.0284E-08  3.0566E-07  3.0831E-07   82.492
   121  203   1.2508   0.0000  -2.3766  0.25017  -3.8154E-07  4.0337E-07  5.5523E-07  133.407
   122  203   1.2508   0.0000  -2.1264  0.25017  -3.9804E-07  4.5425E-07  6.0397E-07  131.227
   123  203   1.2508   0.0000  -1.8763  0.25017   2.9862E-07 -3.1948E-07  4.3731E-07  -46.933
   124  203   1.2508   0.0000  -1.6261  0.25017   4.1969E-07 -4.4139E-07  6.0907E-07  -46.444
   125  203   1.2508   0.0000  -1.3759  0.25017  -1.2273E-07  2.7512E-07  3.0125E-07  114.042
   126  203   1.2508   0.0000  -1.1258  0.25017  -1.7533E-07  3.9388E-07  4.3114E-07  113.996
   127  203   1.2508   0.0000  -0.8756  0.25017   3.2955E-07 -3.2065E-07  4.5980E-07  -44.215
   128  203   1.2508   0.0000  -0.6254  0.25017   2.9734E-07 -4.8496E-07  5.6885E-07  -58.487
   129  203   1.2508   0.0000  -0.3753  0.25017  -2.8064E-07  1.6713E-07  3.2664E-07  149.225
   130  203   1.2508   0.0000  -0.1251  0.25017  -2.7556E-07  3.4435E-07  4.4103E-07  128.669
   131  203   1.2508   0.0000   0.1251  0.25017   3.3220E-07 -1.8074E-07  3.7819E-07  -28.549
   132  203   1.2508   0.0000   0.3753  0.25017   3.8947E-07 -2.0022E-07  4.3792E-07  -27.207
   133  203   1.2508   0.0000   0.6254  0.25017  -1.7766E-07  3.8030E-07  4.1975E-07  115.040
   134  203   1.2508   0.0000   0.8756  0.25017  -2.5973E-07  3.0909E-07  4.0373E-07  130.040
   135  203   1.2508   0.0000   1.1258  0.25017   2.1682E-07 -4.1965E-07  4.7235E-07  -62.676
   136  203   1.2508   0.0000   1.3759  0.25017   1.8350E-07 -4.3601E-07  4.7305E-07  -67.176
   137  203   1.2508   0.0000   1.6261  0.25017  -3.7146E-07  2.9054E-07  4.7158E-07  141.969
   138  203   1.2508   0.0000   1.8763  0.25017  -3.3179E-07  3.2474E-07  4.6427E-07  135.615
   139  203   1.2508   0.0000   2.1264  0.25017   3.0000E-07 -4.0675E-07  5.0541E-07  -53.590
   140  203   1.2508   0.0000   2.3766  0.25017   3.2405E-07 -4.1761E-07  5.2859E-07  -52.190
   141  204   3.7525   0.0000  -2.3766  0.25017   1.4147E-07  3.6170E-09  1.4152E-07    1.465
   142  204   3.7525   0.0000  -2.1264  0.25017   1.5475E-07  3.3112E-08  1.5826E-07   12.077
   143  204   3.7525   0.0000  -1.8763  0.25017  -7.0948E-08  4.6194E-08  8.4661E-08  146.932
   144  204   3.7525   0.0000  -1.6261  0.25017  -7.8932E-08  2.4819E-08  8.2742E-08  162.545
   145  204   3.7525   0.0000  -1.3759  0.25017   1.3002E-07 -9.5165E-09  1.3037E-07   -4.186
   146  204   3.7525   0.0000  -1.1258  0.25017   1.4422E-07 -4.4057E-08  1.5080E-07  -16.987
   147  204   3.7525   0.0000  -0.8756  0.25017  -2.7430E-08 -7.6960E-08  8.1702E-08 -109.617
   148  204   3.7525   0.0000  -0.6254  0.25017  -7.5675E-10 -8.6788E-08  8.6791E-08  -90.500
   149  204   3.7525   0.0000  -0.3753  0.25017   1.8199E-07 -5.3699E-08  1.8975E-07  -16.440
   150  204   3.7525   0.0000  -0.1251  0.25017   1.2323E-07 -2.2906E-09  1.2325E-07   -1.065
   151  204   3.7525   0.0000   0.1251  0.25017  -1.2221E-07  2.8431E-08  1.2548E-07  166.904
   152  204   3.7525   0.0000   0.3753  0.25017  -1.2809E-07  4.3238E-08  1.3519E-07  161.347
   153  204   3.7525   0.0000   0.6254  0.25017   7.8928E-08  6.2510E-08  1.0068E-07   38.379
   154  204   3.7525   0.0000   0.8756  0.25017   8.5530E-08  5.9200E-08  1.0402E-07   34.689
   155  204   3.7525   0.0000   1.1258  0.25017  -9.0775E-08 -3.4801E-09  9.0842E-08 -177.805
   156  204   3.7525   0.0000   1.3759  0.25017  -6.6073E-08 -8.8780E-08  1.1067E-07 -126.658
   157  204   3.7525   0.0000   1.6261  0.25017   1.0633E-07 -1.2024E-07  1.6051E-07  -48.513
   158  204   3.7525   0.0000   1.8763  0.25017   2.8167E-08 -8.7779E-08  9.2188E-08  -72.210
   159  204   3.7525   0.0000   2.1264  0.25017  -2.1549E-07 -4.3834E-08  2.1990E-07 -168.502
   160  204   3.7525   0.0000   2.3766  0.25017  -1.5976E-07 -1.3566E-08  1.6034E-07 -175.147
   161  301  -3.7525   2.5017  -2.3766  0.25017   1.6519E-07  1.2689E-08  1.6568E-07    4.392
   162  301  -3.7525   2.5017  -2.1264  0.25017   1.8090E-07  4.5925E-08  1.8664E-07   14.244
   163  301  -3.7525   2.5017  -1.8763  0.25017  -8.8467E-08  4.8478E-08  1.0088E-07  151.278
   164  301  -3.7525   2.5017  -1.6261  0.25017  -1.0356E-07  2.5277E-08  1.0660E-07  166.284
   165  301  -3.7525   2.5017  -1.3759  0.25017   1.4335E-07 -1.7491E-09  1.4337E-07   -0.699
   166  301  -3.7525   2.5017  -1.1258  0.25017   1.6401E-07 -4.0039E-08  1.6883E-07  -13.719
   167  301  -3.7525   2.5017  -0.8756  0.25017  -4.1831E-08 -8.5442E-08  9.5133E-08 -116.086
   168  301  -3.7525   2.5017  -0.6254  0.25017  -1.8179E-08 -9.4467E-08  9.6200E-08 -100.892
   169  301  -3.7525   2.5017  -0.3753  0.25017   1.9920E-07 -4.8937E-08  2.0512E-07  -13.803
   170  301  -3.7525   2.5017  -0.1251  0.25017   1.4241E-07  3.6782E-09  1.4246E-07    1.480
   171  301  -3.7525   2.5017   0.1251  0.25017  -1.3785E-07  2.4601E-08  1.4003E-07  169.882
   172  301  -3.7525   2.5017   0.3753  0.25017  -1.4522E-07  4.0781E-08  1.5083E-07  164.314
   173  301  -3.7525   2.5017   0.6254  0.25017   9.6006E-08  7.2337E-08  1.2021E-07   36.997
   174  301  -3.7525   2.5017   0.8756  0.25017   1.0248E-07  6.9380E-08  1.2375E-07   34.100
   175  301  -3.7525   2.5017   1.1258  0.25017  -1.0805E-07 -6.0410E-09  1.0821E-07 -176.800
   176  301  -3.7525   2.5017   1.3759  0.25017  -7.9966E-08 -9.5087E-08  1.2424E-07 -130.063
   177  301  -3.7525   2.5017   1.6261  0.25017   1.3053E-07 -1.1931E-07  1.7685E-07  -42.428
   178  301  -3.7525   2.5017   1.8763  0.25017   4.8794E-08 -8.8760E-08  1.0129E-07  -61.201
   179  301  -3.7525   2.5017   2.1264  0.25017  -2.3802E-07 -5.5390E-08  2.4438E-07 -166.900
   180  301  -3.7525   2.5017   2.3766  0.25017  -1.8281E-07 -2.1971E-08  1.8412E-07 -173.147
   181  302  -1.2508   2.5017  -2.3766  0.25017  -7.1774E-08  1.5486E-07  1.7068E-07  114.867
   182  302  -1.2508   2.5017  -2.1264  0.25017  -9.2705E-08  1.1903E-07  1.5087E-07  127.912
   183  302  -1.2508   2.5017  -1.8763  0.25017  -2.5262E-09 -2.0086E-07  2.0087E-07  -90.721
   184  302  -1.2508   2.5017  -1.6261  0.25017   1.7897E-08 -2.0718E-07  2.0795E-07  -85.063
   185  302  -1.2508   2.5017  -1.3759  0.25017  -4.6679E-08  9.1747E-08  1.0294E-07  116.966
   186  302  -1.2508   2.5017  -1.1258  0.25017  -5.7409E-08  1.2891E-07  1.4112E-07  114.005
   187  302  -1.2508   2.5017  -0.8756  0.25017  -9.9046E-09 -1.1452E-07  1.1495E-07  -94.943
   188  302  -1.2508   2.5017  -0.6254  0.25017  -2.7084E-08 -1.1344E-07  1.1663E-07 -103.428
   189  302  -1.2508   2.5017  -0.3753  0.25017  -9.0102E-08  1.3311E-07  1.6074E-07  124.094
   190  302  -1.2508   2.5017  -0.1251  0.25017  -5.7918E-08  1.0937E-07  1.2376E-07  117.904
   191  302  -1.2508   2.5017   0.1251  0.25017   5.0853E-08 -1.6887E-07  1.7636E-07  -73.241
   192  302  -1.2508   2.5017   0.3753  0.25017   6.9592E-08 -1.7544E-07  1.8874E-07  -68.364
   193  302  -1.2508   2.5017   0.6254  0.25017  -1.8026E-08  8.1313E-08  8.3287E-08  102.500
   194  302  -1.2508   2.5017   0.8756  0.25017  -5.8539E-08  8.8921E-08  1.0646E-07  123.358
   195  302  -1.2508   2.5017   1.1258  0.25017  -1.6100E-08 -1.2745E-07  1.2847E-07  -97.199
   196  302  -1.2508   2.5017   1.3759  0.25017  -9.6627E-09 -5.5102E-08  5.5943E-08  -99.946
   197  302  -1.2508   2.5017   1.6261  0.25017  -4.8009E-08  2.4702E-07  2.5164E-07  100.999
   198  302  -1.2508   2.5017   1.8763  0.25017  -7.5087E-09  2.1280E-07  2.1294E-07   92.021
   199  302  -1.2508   2.5017   2.1264  0.25017   9.1778E-08 -1.2389E-07  1.5418E-07  -53.469
   200  302  -1.2508   2.5017   2.3766  0.25017   7.2400E-08 -1.5469E-07  1.7079E-07  -64.919
   201  303   1.2508   2.5017  -2.3766  0.25017   1.6443E-07  2.5113E-08  1.6634E-07    8.683
   202  303   1.2508   2.5017  -2.1264  0.25017   1.7981E-07  5.7770E-08  1.8886E-07   17.811
   203  303   1.2508   2.5017  -1.8763  0.25017  -8.8804E-08  3.6641E-08  9.6066E-08  157.579
   204  303   1.2508   2.5017  -1.6261  0.25017  -1.0340E-07  1.2478E-08  1.0415E-07  173.118
   205  303   1.2508   2.5017  -1.3759  0.25017   1.4279E-07  7.6042E-09  1.4299E-07    3.048
   206  303   1.2508   2.5017  -1.1258  0.25017   1.6242E-07 -2.9682E-08  1.6511E-07  -10.357
   207  303   1.2508   2.5017  -0.8756  0.25017  -4.2563E-08 -9.6418E-08  1.0539E-07 -113.819
   208  303   1.2508   2.5017  -0.6254  0.25017  -1.6275E-08 -1.0580E-07  1.0704E-07  -98.745
   209  303   1.2508   2.5017  -0.3753  0.25017   2.0212E-07 -3.8551E-08  2.0577E-07  -10.799
   210  303   1.2508   2.5017  -0.1251  0.25017   1.4291E-07  1.4543E-08  1.4365E-07    5.811
   211  303   1.2508   2.5017   0.1251  0.25017  -1.4039E-07  1.3430E-08  1.4103E-07  174.536
   212  303   1.2508   2.5017   0.3753  0.25017  -1.4827E-07  2.8592E-08  1.5100E-07  169.085
   213  303   1.2508   2.5017   0.6254  0.25017   9.4091E-08  8.2000E-08  1.2481E-07   41.072
   214  303   1.2508   2.5017   0.8756  0.25017   1.0136E-07  8.0364E-08  1.2935E-07   38.410
   215  303   1.2508   2.5017   1.1258  0.25017  -1.0849E-07 -1.6408E-08  1.0973E-07 -171.400
   216  303   1.2508   2.5017   1.3759  0.25017  -7.9834E-08 -1.0609E-07  1.3278E-07 -126.961
   217  303   1.2508   2.5017   1.6261  0.25017   1.2973E-07 -1.0817E-07  1.6891E-07  -39.823
   218  303   1.2508   2.5017   1.8763  0.25017   4.6276E-08 -7.6858E-08  8.9714E-08  -58.948
   219  303   1.2508   2.5017   2.1264  0.25017  -2.4012E-07 -6.6722E-08  2.4922E-07 -164.471
   220  303   1.2508   2.5017   2.3766  0.25017  -1.8301E-07 -3.4599E-08  1.8625E-07 -169.294
   221  304   3.7525   2.5017  -2.3766  0.25017   7.9987E-09 -1.6760E-07  1.6779E-07  -87.268
   222  304   3.7525   2.5017  -2.1264  0.25017  -2.0626E-11 -1.7725E-07  1.7725E-07  -90.007
   223  304   3.7525   2.5017  -1.8763  0.25017  -2.5100E-08  1.2026E-07  1.2285E-07  101.790
   224  304   3.7525   2.5017  -1.6261  0.25017  -2.8011E-08  1.3683E-07  1.3967E-07  101.570
   225  304   3.7525   2.5017  -1.3759  0.25017  -1.6868E-08 -1.3306E-07  1.3412E-07  -97.225
   226  304   3.7525   2.5017  -1.1258  0.25017  -3.6064E-08 -1.3112E-07  1.3599E-07 -105.378
   227  304   3.7525   2.5017  -0.8756  0.25017  -7.6547E-08  1.3875E-07  1.5847E-07  118.884
   228  304   3.7525   2.5017  -0.6254  0.25017  -7.7723E-08  1.2727E-07  1.4912E-07  121.412
   229  304   3.7525   2.5017  -0.3753  0.25017  -3.1536E-08 -1.5016E-07  1.5344E-07 -101.861
   230  304   3.7525   2.5017  -0.1251  0.25017  -4.7503E-10 -1.4013E-07  1.4013E-07  -90.194
   231  304   3.7525   2.5017   0.1251  0.25017  -8.4825E-09  1.4016E-07  1.4041E-07   93.463
   232  304   3.7525   2.5017   0.3753  0.25017  -3.3188E-09  1.3459E-07  1.3463E-07   91.413
   233  304   3.7525   2.5017   0.6254  0.25017   3.5949E-08 -1.4136E-07  1.4586E-07  -75.732
   234  304   3.7525   2.5017   0.8756  0.25017   4.7836E-08 -1.3296E-07  1.4130E-07  -70.212
   235  304   3.7525   2.5017   1.1258  0.25017  -1.0307E-09  1.4422E-07  1.4422E-07   90.409
   236  304   3.7525   2.5017   1.3759  0.25017  -4.4732E-08  1.4060E-07  1.4754E-07  107.649
   237  304   3.7525   2.5017   1.6261  0.25017  -2.5823E-08 -1.1727E-07  1.2008E-07 -102.418
   238  304   3.7525   2.5017   1.8763  0.25017   9.8106E-09 -7.5168E-08  7.5805E-08  -82.564
   239  304   3.7525   2.5017   2.1264  0.25017   3.9071E-09  2.2233E-07  2.2236E-07   88.993
   240  304   3.7525   2.5017   2.3766  0.25017  -9.8149E-09  1.8240E-07  1.8267E-07   93.080



                                        - - - POWER BUDGET - - -

                                           INPUT POWER   = 2.9898E-08 WATTS
                                           RADIATED POWER= 2.9898E-08 WATTS
                                           STRUCTURE LOSS= 0.0000E+00 WATTS
                                           NETWORK LOSS  = 0.0000E+00 WATTS
                                           EFFICIENCY    = 100.00 PERCENT



                                                - - - RADIATION PATTERNS - - -

  - - ANGLES - -       - DIRECTIVE GAINS -       - - - POLARIZATION - - -    - - - E(THETA) - - -    - - - E(PHI) - - -
  THETA     PHI        VERT.   HOR.    TOTAL      AXIAL     TILT   SENSE     MAGNITUDE    PHASE      MAGNITUDE    PHASE 
 DEGREES  DEGREES       DB      DB      DB        RATIO     DEG.              VOLTS/M    DEGREES      VOLTS/M    DEGREES
    0.00     0.00    -999.99 -999.99 -999.99    0.00000     0.00            0.00000E+00     0.00    0.00000E+00     0.00
    5.00     0.00      -5.35 -999.99   -5.35    0.00000     0.00  LINEAR    7.22909E-04    43.91    0.00000E+00     0.00
   10.00     0.00       0.62 -999.99    0.62    0.00000     0.00  LINEAR    1.43831E-03     0.08    0.00000E+00     0.00
   15.00     0.00       4.32 -999.99    4.32    0.00000     0.00  LINEAR    2.20170E-03   -36.88    0.00000E+00     0.00
   20.00     0.00       6.37 -999.99    6.37    0.00000     0.00  LINEAR    2.78825E-03   -70.02    0.00000E+00     0.00
   25.00     0.00       7.13 -999.99    7.13    0.00000     0.00  LINEAR    3.04322E-03  -105.67    0.00000E+00     0.00
   30.00     0.00       5.77 -999.99    5.77    0.00000     0.00  LINEAR    2.60066E-03  -143.19    0.00000E+00     0.00
   35.00     0.00       0.85 -999.99    0.85    0.00000     0.00  LINEAR    1.47595E-03   179.77    0.00000E+00     0.00
   40.00     0.00     -39.91 -999.99  -39.91    0.00000     0.00  LINEAR    1.35238E-05    48.27    0.00000E+00     0.00
   45.00     0.00      -3.15 -999.99   -3.15    0.00000     0.00  LINEAR    9.31525E-04   -55.35    0.00000E+00     0.00
   50.00     0.00      -7.25 -999.99   -7.25    0.00000     0.00  LINEAR    5.81058E-04   -85.00    0.00000E+00     0.00
   55.00     0.00      -5.45 -999.99   -5.45    0.00000     0.00  LINEAR    7.14529E-04    86.16    0.00000E+00     0.00
   60.00     0.00       1.47 -999.99    1.47    0.00000     0.00  LINEAR    1.58596E-03    61.14    0.00000E+00     0.00
   65.00     0.00      -2.31 -999.99   -2.31    0.00000     0.00  LINEAR    1.02606E-03    44.00    0.00000E+00     0.00
   70.00     0.00     -12.90 -999.99  -12.90    0.00000     0.00  LINEAR    3.03376E-04   177.48    0.00000E+00     0.00
   75.00     0.00      -6.38 -999.99   -6.38    0.00000     0.00  LINEAR    6.42092E-04   176.75    0.00000E+00     0.00
   80.00     0.00      -9.66 -999.99   -9.66    0.00000     0.00  LINEAR    4.40127E-04    18.51    0.00000E+00     0.00
   85.00     0.00      -0.86 -999.99   -0.86    0.00000     0.00  LINEAR    1.21223E-03     5.34    0.00000E+00     0.00
   90.00     0.00      -8.39 -999.99   -8.39    0.00000     0.00  LINEAR    5.09345E-04    31.18    0.00000E+00     0.00
    0.00     5.00    -999.99 -999.99 -999.99    0.00000     0.00            0.00000E+00     0.00    0.00000E+00     0.00
    5.00     5.00      -5.38 -999.99   -5.38    0.00000     0.00  LINEAR    7.20406E-04    37.49    0.00000E+00     0.00
   10.00     5.00       0.64 -999.99    0.64    0.00000     0.00  LINEAR    1.44134E-03   -14.23    0.00000E+00     0.00
   15.00     5.00       4.35 -999.99    4.35    0.00000     0.00  LINEAR    2.21031E-03   -57.02    0.00000E+00     0.00
   20.00     5.00       6.14 -999.99    6.14    0.00000     0.00  LINEAR    2.71383E-03   -96.08    0.00000E+00     0.00
   25.00     5.00       6.96 -999.99    6.96    0.00000     0.00  LINEAR    2.98410E-03  -137.12    0.00000E+00     0.00
   30.00     5.00       5.56 -999.99    5.56    0.00000     0.00  LINEAR    2.53933E-03   178.28    0.00000E+00     0.00
   35.00     5.00       0.81 -999.99    0.81    0.00000     0.00  LINEAR    1.47055E-03   135.72    0.00000E+00     0.00
   40.00     5.00     -25.09 -999.99  -25.09    0.00000     0.00  LINEAR    7.45552E-05   -93.82    0.00000E+00     0.00
   45.00     5.00      -3.40 -999.99   -3.40    0.00000     0.00  LINEAR    9.05629E-04  -109.44    0.00000E+00     0.00
   50.00     5.00      -7.59 -999.99   -7.59    0.00000     0.00  LINEAR    5.58825E-04  -141.74    0.00000E+00     0.00
   55.00     5.00      -5.91 -999.99   -5.91    0.00000     0.00  LINEAR    6.78293E-04    23.57    0.00000E+00     0.00
   60.00     5.00       0.86 -999.99    0.86    0.00000     0.00  LINEAR    1.47787E-03    -4.93    0.00000E+00     0.00
   65.00     5.00      -3.34 -999.99   -3.34    0.00000     0.00  LINEAR    9.11185E-04   -23.89    0.00000E+00     0.00
   70.00     5.00      -8.00 -999.99   -8.00    0.00000     0.00  LINEAR    5.33261E-04    97.16    0.00000E+00     0.00
   75.00     5.00      -4.82 -999.99   -4.82    0.00000     0.00  LINEAR    7.69071E-04    97.84    0.00000E+00     0.00
   80.00     5.00      -6.90 -999.99   -6.90    0.00000     0.00  LINEAR    6.05233E-04   -77.17    0.00000E+00     0.00
   85.00     5.00       0.94 -999.99    0.94    0.00000     0.00  LINEAR    1.49232E-03   -82.18    0.00000E+00     0.00
   90.00     5.00      -7.96 -999.99   -7.96    0.00000     0.00  LINEAR    5.35207E-04   -57.82    0.00000E+00     0.00
    0.00    10.00    -999.99 -999.99 -999.99    0.00000     0.00            0.00000E+00     0.00    0.00000E+00     0.00
    5.00    10.00      -5.42 -999.99   -5.42    0.00000     0.00  LINEAR    7.17402E-04    31.43    0.00000E+00     0.00
   10.00    10.00       0.70 -999.99    0.70    0.00000     0.00  LINEAR    1.45175E-03   -27.84    0.00000E+00     0.00
   15.00    10.00       4.41 -999.99    4.41    0.00000     0.00  LINEAR    2.22470E-03   -76.39    0.00000E+00     0.00
   20.00    10.00       5.90 -999.99    5.90    0.00000     0.00  LINEAR    2.64130E-03  -121.93    0.00000E+00     0.00
   25.00    10.00       6.64 -999.99    6.64    0.00000     0.00  LINEAR    2.87639E-03  -167.78    0.00000E+00     0.00
   30.00    10.00       5.42 -999.99    5.42    0.00000     0.00  LINEAR    2.50009E-03   140.77    0.00000E+00     0.00
   35.00    10.00       0.73 -999.99    0.73    0.00000     0.00  LINEAR    1.45632E-03    94.17    0.00000E+00     0.00
   40.00    10.00     -17.06 -999.99  -17.06    0.00000     0.00  LINEAR    1.87824E-04  -126.62    0.00000E+00     0.00
   45.00    10.00      -2.89 -999.99   -2.89    0.00000     0.00  LINEAR    9.60218E-04  -164.30    0.00000E+00     0.00
   50.00    10.00      -7.79 -999.99   -7.79    0.00000     0.00  LINEAR    5.46009E-04   161.99    0.00000E+00     0.00
   55.00    10.00      -6.69 -999.99   -6.69    0.00000     0.00  LINEAR    6.19942E-04   -44.15    0.00000E+00     0.00
   60.00    10.00       0.61 -999.99    0.61    0.00000     0.00  LINEAR    1.43635E-03   -73.32    0.00000E+00     0.00
   65.00    10.00      -3.16 -999.99   -3.16    0.00000     0.00  LINEAR    9.30060E-04   -95.05    0.00000E+00     0.00
   70.00    10.00      -8.08 -999.99   -8.08    0.00000     0.00  LINEAR    5.27869E-04    51.88    0.00000E+00     0.00
   75.00    10.00      -4.52 -999.99   -4.52    0.00000     0.00  LINEAR    7.95791E-04    38.98    0.00000E+00     0.00
   80.00    10.00      -6.13 -999.99   -6.13    0.00000     0.00  LINEAR    6.61188E-04  -126.54    0.00000E+00     0.00
   85.00    10.00       1.32 -999.99    1.32    0.00000     0.00  LINEAR    1.55928E-03  -139.41    0.00000E+00     0.00
   90.00    10.00      -7.55 -999.99   -7.55    0.00000     0.00  LINEAR    5.61042E-04  -119.94    0.00000E+00     0.00
    0.00    15.00    -999.99 -999.99 -999.99    0.00000     0.00            0.00000E+00     0.00    0.00000E+00     0.00
    5.00    15.00      -5.46 -999.99   -5.46    0.00000     0.00  LINEAR    7.14032E-04    25.78    0.00000E+00     0.00
   10.00    15.00       0.81 -999.99    0.81    0.00000     0.00  LINEAR    1.46898E-03   -40.51    0.00000E+00     0.00
   15.00    15.00       4.54 -999.99    4.54    0.00000     0.00  LINEAR    2.25798E-03   -94.74    0.00000E+00     0.00
   20.00    15.00       5.81 -999.99    5.81    0.00000     0.00  LINEAR    2.61304E-03  -147.26    0.00000E+00     0.00
   25.00    15.00       6.35 -999.99    6.35    0.00000     0.00  LINEAR    2.78210E-03   161.63    0.00000E+00     0.00
   30.00    15.00       5.46 -999.99    5.46    0.00000     0.00  LINEAR    2.51086E-03   105.52    0.00000E+00     0.00
   35.00    15.00       0.64 -999.99    0.64    0.00000     0.00  LINEAR    1.44165E-03    54.60    0.00000E+00     0.00
   40.00    15.00     -13.02 -999.99  -13.02    0.00000     0.00  LINEAR    2.99059E-04  -143.03    0.00000E+00     0.00
   45.00    15.00      -1.71 -999.99   -1.71    0.00000     0.00  LINEAR    1.09935E-03   152.05    0.00000E+00     0.00
   50.00    15.00      -7.52 -999.99   -7.52    0.00000     0.00  LINEAR    5.63610E-04   110.50    0.00000E+00     0.00
   55.00    15.00      -4.80 -999.99   -4.80    0.00000     0.00  LINEAR    7.70409E-04  -107.40    0.00000E+00     0.00
   60.00    15.00       1.80 -999.99    1.80    0.00000     0.00  LINEAR    1.64625E-03  -134.60    0.00000E+00     0.00
   65.00    15.00      -2.46 -999.99   -2.46    0.00000     0.00  LINEAR    1.00904E-03  -153.25    0.00000E+00     0.00
   70.00    15.00     -10.21 -999.99  -10.21    0.00000     0.00  LINEAR    4.13352E-04   -19.13    0.00000E+00     0.00
   75.00    15.00      -6.08 -999.99   -6.08    0.00000     0.00  LINEAR    6.64743E-04   -26.51    0.00000E+00     0.00
   80.00    15.00      -8.04 -999.99   -8.04    0.00000     0.00  LINEAR    5.30307E-04   159.63    0.00000E+00     0.00
   85.00    15.00      -0.04 -999.99   -0.04    0.00000     0.00  LINEAR    1.33307E-03   148.30    0.00000E+00     0.00
   90.00    15.00      -8.13 -999.99   -8.13    0.00000     0.00  LINEAR    5.25051E-04   164.79    0.00000E+00     0.00
    0.00    20.00    -999.99 -999.99 -999.99    0.00000     0.00            0.00000E+00     0.00    0.00000E+00     0.00
    5.00    20.00      -5.50 -999.99   -5.50    0.00000     0.00  LINEAR    7.10407E-04    20.58    0.00000E+00     0.00
   10.00    20.00       0.93 -999.99    0.93    0.00000     0.00  LINEAR    1.49045E-03   -52.01    0.00000E+00     0.00
   15.00    20.00       4.76 -999.99    4.76    0.00000     0.00  LINEAR    2.31570E-03  -111.56    0.00000E+00     0.00
   20.00    20.00       5.96 -999.99    5.96    0.00000     0.00  LINEAR    2.65829E-03  -170.91    0.00000E+00     0.00
   25.00    20.00       6.35 -999.99    6.35    0.00000     0.00  LINEAR    2.78084E-03   132.06    0.00000E+00     0.00
   30.00    20.00       5.62 -999.99    5.62    0.00000     0.00  LINEAR    2.55712E-03    73.56    0.00000E+00     0.00
   35.00    20.00       0.72 -999.99    0.72    0.00000     0.00  LINEAR    1.45507E-03    17.93    0.00000E+00     0.00
   40.00    20.00     -12.43 -999.99  -12.43    0.00000     0.00  LINEAR    3.19974E-04  -153.24    0.00000E+00     0.00
   45.00    20.00      -1.72 -999.99   -1.72    0.00000     0.00  LINEAR    1.09860E-03   116.67    0.00000E+00     0.00
   50.00    20.00      -7.20 -999.99   -7.20    0.00000     0.00  LINEAR    5.84575E-04    66.59    0.00000E+00     0.00
   55.00    20.00      -3.83 -999.99   -3.83    0.00000     0.00  LINEAR    8.61508E-04  -151.32    0.00000E+00     0.00
   60.00    20.00       2.55 -999.99    2.55    0.00000     0.00  LINEAR    1.79638E-03   178.29    0.00000E+00     0.00
   65.00    20.00      -1.88 -999.99   -1.88    0.00000     0.00  LINEAR    1.07886E-03   158.51    0.00000E+00     0.00
   70.00    20.00      -9.22 -999.99   -9.22    0.00000     0.00  LINEAR    4.63188E-04   -90.95    0.00000E+00     0.00
   75.00    20.00      -6.08 -999.99   -6.08    0.00000     0.00  LINEAR    6.64589E-04   -91.08    0.00000E+00     0.00
   80.00    20.00      -6.85 -999.99   -6.85    0.00000     0.00  LINEAR    6.08261E-04    93.87    0.00000E+00     0.00
   85.00    20.00       0.70 -999.99    0.70    0.00000     0.00  LINEAR    1.45099E-03    84.84    0.00000E+00     0.00
   90.00    20.00      -6.85 -999.99   -6.85    0.00000     0.00  LINEAR    6.08210E-04   105.04    0.00000E+00     0.00
    0.00    25.00    -999.99 -999.99 -999.99    0.00000     0.00            0.00000E+00     0.00    0.00000E+00     0.00
    5.00    25.00      -5.55 -999.99   -5.55    0.00000     0.00  LINEAR    7.06612E-04    15.89    0.00000E+00     0.00
   10.00    25.00       1.06 -999.99    1.06    0.00000     0.00  LINEAR    1.51199E-03   -62.17    0.00000E+00     0.00
   15.00    25.00       5.03 -999.99    5.03    0.00000     0.00  LINEAR    2.38955E-03  -126.34    0.00000E+00     0.00
   20.00    25.00       6.29 -999.99    6.29    0.00000     0.00  LINEAR    2.76273E-03   168.50    0.00000E+00     0.00
   25.00    25.00       6.65 -999.99    6.65    0.00000     0.00  LINEAR    2.87855E-03   105.72    0.00000E+00     0.00
   30.00    25.00       5.82 -999.99    5.82    0.00000     0.00  LINEAR    2.61693E-03    45.30    0.00000E+00     0.00
   35.00    25.00       0.91 -999.99    0.91    0.00000     0.00  LINEAR    1.48609E-03   -14.21    0.00000E+00     0.00
   40.00    25.00     -15.42 -999.99  -15.42    0.00000     0.00  LINEAR    2.26931E-04  -161.91    0.00000E+00     0.00
   45.00    25.00      -2.82 -999.99   -2.82    0.00000     0.00  LINEAR    9.68064E-04    77.27    0.00000E+00     0.00
   50.00    25.00      -7.33 -999.99   -7.33    0.00000     0.00  LINEAR    5.75943E-04    25.22    0.00000E+00     0.00
   55.00    25.00      -4.59 -999.99   -4.59    0.00000     0.00  LINEAR    7.88905E-04   164.18    0.00000E+00     0.00
   60.00    25.00       1.77 -999.99    1.77    0.00000     0.00  LINEAR    1.64079E-03   132.77    0.00000E+00     0.00
   65.00    25.00      -3.17 -999.99   -3.17    0.00000     0.00  LINEAR    9.29159E-04   114.92    0.00000E+00     0.00
   70.00    25.00      -7.11 -999.99   -7.11    0.00000     0.00  LINEAR    5.90792E-04  -139.09    0.00000E+00     0.00
   75.00    25.00      -6.22 -999.99   -6.22    0.00000     0.00  LINEAR    6.53894E-04  -140.82    0.00000E+00     0.00
   80.00    25.00      -6.14 -999.99   -6.14    0.00000     0.00  LINEAR    6.60311E-04    31.12    0.00000E+00     0.00
   85.00    25.00       0.72 -999.99    0.72    0.00000     0.00  LINEAR    1.45507E-03    25.49    0.00000E+00     0.00
   90.00    25.00      -6.95 -999.99   -6.95    0.00000     0.00  LINEAR    6.01443E-04    44.85    0.00000E+00     0.00
    0.00    30.00    -999.99 -999.99 -999.99    0.00000     0.00            0.00000E+00     0.00    0.00000E+00     0.00
    5.00    30.00      -5.60 -999.99   -5.60    0.00000     0.00  LINEAR    7.02703E-04    11.75    0.00000E+00     0.00
   10.00    30.00       1.15 -999.99    1.15    0.00000     0.00  LINEAR    1.52881E-03   -70.93    0.00000E+00     0.00
   15.00    30.00       5.28 -999.99    5.28    0.00000     0.00  LINEAR    2.46029E-03  -138.87    0.00000E+00     0.00
   20.00    30.00       6.64 -999.99    6.64    0.00000     0.00  LINEAR    2.87504E-03   151.56    0.00000E+00     0.00
   25.00    30.00       7.00 -999.99    7.00    0.00000     0.00  LINEAR    2.99755E-03    83.82    0.00000E+00     0.00
   30.00    30.00       5.98 -999.99    5.98    0.00000     0.00  LINEAR    2.66630E-03    20.75    0.00000E+00     0.00
   35.00    30.00       1.01 -999.99    1.01    0.00000     0.00  LINEAR    1.50322E-03   -41.70    0.00000E+00     0.00
   40.00    30.00     -22.61 -999.99  -22.61    0.00000     0.00  LINEAR    9.91090E-05  -171.29    0.00000E+00     0.00
   45.00    30.00      -3.27 -999.99   -3.27    0.00000     0.00  LINEAR    9.18937E-04    32.27    0.00000E+00     0.00
   50.00    30.00      -6.95 -999.99   -6.95    0.00000     0.00  LINEAR    6.01288E-04   -19.74    0.00000E+00     0.00
   55.00    30.00      -5.45 -999.99   -5.45    0.00000     0.00  LINEAR    7.14665E-04   121.20    0.00000E+00     0.00
   60.00    30.00       0.88 -999.99    0.88    0.00000     0.00  LINEAR    1.48132E-03    84.33    0.00000E+00     0.00
   65.00    30.00      -4.53 -999.99   -4.53    0.00000     0.00  LINEAR    7.94676E-04    55.74    0.00000E+00     0.00
   70.00    30.00      -8.93 -999.99   -8.93    0.00000     0.00  LINEAR    4.78793E-04  -167.48    0.00000E+00     0.00
   75.00    30.00      -7.70 -999.99   -7.70    0.00000     0.00  LINEAR    5.51748E-04   172.81    0.00000E+00     0.00
   80.00    30.00      -5.88 -999.99   -5.88    0.00000     0.00  LINEAR    6.80350E-04    -9.84    0.00000E+00     0.00
   85.00    30.00       0.63 -999.99    0.63    0.00000     0.00  LINEAR    1.44007E-03   -20.70    0.00000E+00     0.00
   90.00    30.00      -6.40 -999.99   -6.40    0.00000     0.00  LINEAR    6.41120E-04    -2.72    0.00000E+00     0.00
    0.00    35.00    -999.99 -999.99 -999.99    0.00000     0.00            0.00000E+00     0.00    0.00000E+00     0.00
    5.00    35.00      -5.65 -999.99   -5.65    0.00000     0.00  LINEAR    6.98723E-04     8.18    0.00000E+00     0.00
   10.00    35.00       1.20 -999.99    1.20    0.00000     0.00  LINEAR    1.53672E-03   -78.27    0.00000E+00     0.00
   15.00    35.00       5.45 -999.99    5.45    0.00000     0.00  LINEAR    2.50732E-03  -149.24    0.00000E+00     0.00
   20.00    35.00       6.85 -999.99    6.85    0.00000     0.00  LINEAR    2.94569E-03   137.85    0.00000E+00     0.00
   25.00    35.00       7.18 -999.99    7.18    0.00000     0.00  LINEAR    3.06124E-03    65.82    0.00000E+00     0.00
   30.00    35.00       6.05 -999.99    6.05    0.00000     0.00  LINEAR    2.68539E-03    -0.48    0.00000E+00     0.00
   35.00    35.00       0.98 -999.99    0.98    0.00000     0.00  LINEAR    1.49936E-03   -65.27    0.00000E+00     0.00
   40.00    35.00     -35.46 -999.99  -35.46    0.00000     0.00  LINEAR    2.25727E-05   174.29    0.00000E+00     0.00
   45.00    35.00      -2.96 -999.99   -2.96    0.00000     0.00  LINEAR    9.52153E-04    -7.03    0.00000E+00     0.00
   50.00    35.00      -5.72 -999.99   -5.72    0.00000     0.00  LINEAR    6.93023E-04   -59.33    0.00000E+00     0.00
   55.00    35.00      -6.36 -999.99   -6.36    0.00000     0.00  LINEAR    6.43497E-04    78.60    0.00000E+00     0.00
   60.00    35.00       0.58 -999.99    0.58    0.00000     0.00  LINEAR    1.43175E-03    37.76    0.00000E+00     0.00
   65.00    35.00      -4.06 -999.99   -4.06    0.00000     0.00  LINEAR    8.38586E-04     5.40    0.00000E+00     0.00
   70.00    35.00     -10.95 -999.99  -10.95    0.00000     0.00  LINEAR    3.79480E-04   137.13    0.00000E+00     0.00
   75.00    35.00      -7.47 -999.99   -7.47    0.00000     0.00  LINEAR    5.66654E-04   117.05    0.00000E+00     0.00
   80.00    35.00      -8.15 -999.99   -8.15    0.00000     0.00  LINEAR    5.23787E-04   -55.76    0.00000E+00     0.00
   85.00    35.00      -0.60 -999.99   -0.60    0.00000     0.00  LINEAR    1.24970E-03   -69.92    0.00000E+00     0.00
   90.00    35.00      -7.72 -999.99   -7.72    0.00000     0.00  LINEAR    5.50279E-04   -46.63    0.00000E+00     0.00
    0.00    40.00    -999.99 -999.99 -999.99    0.00000     0.00            0.00000E+00     0.00    0.00000E+00     0.00
    5.00    40.00      -5.70 -999.99   -5.70    0.00000     0.00  LINEAR    6.94715E-04     5.21    0.00000E+00     0.00
   10.00    40.00       1.18 -999.99    1.18    0.00000     0.00  LINEAR    1.53313E-03   -84.24    0.00000E+00     0.00
   15.00    40.00       5.48 -999.99    5.48    0.00000     0.00  LINEAR    2.51756E-03  -157.75    0.00000E+00     0.00
   20.00    40.00       6.88 -999.99    6.88    0.00000     0.00  LINEAR    2.95649E-03   126.49    0.00000E+00     0.00
   25.00    40.00       7.17 -999.99    7.17    0.00000     0.00  LINEAR    3.05712E-03    50.64    0.00000E+00     0.00
   30.00    40.00       6.01 -999.99    6.01    0.00000     0.00  LINEAR    2.67460E-03   -18.81    0.00000E+00     0.00
   35.00    40.00       0.87 -999.99    0.87    0.00000     0.00  LINEAR    1.47914E-03   -85.37    0.00000E+00     0.00
   40.00    40.00     -36.62 -999.99  -36.62    0.00000     0.00  LINEAR    1.97552E-05    84.90    0.00000E+00     0.00
   45.00    40.00      -2.79 -999.99   -2.79    0.00000     0.00  LINEAR    9.70936E-04   -36.51    0.00000E+00     0.00
   50.00    40.00      -5.08 -999.99   -5.08    0.00000     0.00  LINEAR    7.45699E-04   -89.96    0.00000E+00     0.00
   55.00    40.00      -4.81 -999.99   -4.81    0.00000     0.00  LINEAR    7.69981E-04    44.61    0.00000E+00     0.00
   60.00    40.00       2.06 -999.99    2.06    0.00000     0.00  LINEAR    1.69749E-03     3.51    0.00000E+00     0.00
   65.00    40.00      -2.65 -999.99   -2.65    0.00000     0.00  LINEAR    9.86805E-04   -29.85    0.00000E+00     0.00
   70.00    40.00      -9.48 -999.99   -9.48    0.00000     0.00  LINEAR    4.49329E-04   100.53    0.00000E+00     0.00
   75.00    40.00      -6.06 -999.99   -6.06    0.00000     0.00  LINEAR    6.66715E-04    82.16    0.00000E+00     0.00
   80.00    40.00      -7.30 -999.99   -7.30    0.00000     0.00  LINEAR    5.77795E-04   -98.80    0.00000E+00     0.00
   85.00    40.00       0.39 -999.99    0.39    0.00000     0.00  LINEAR    1.40032E-03  -110.23    0.00000E+00     0.00
   90.00    40.00      -7.26 -999.99   -7.26    0.00000     0.00  LINEAR    5.80208E-04   -88.32    0.00000E+00     0.00
    0.00    45.00    -999.99 -999.99 -999.99    0.00000     0.00            0.00000E+00     0.00    0.00000E+00     0.00
    5.00    45.00      -5.75 -999.99   -5.75    0.00000     0.00  LINEAR    6.90737E-04     2.84    0.00000E+00     0.00
   10.00    45.00       1.09 -999.99    1.09    0.00000     0.00  LINEAR    1.51763E-03   -88.91    0.00000E+00     0.00
   15.00    45.00       5.39 -999.99    5.39    0.00000     0.00  LINEAR    2.48994E-03  -164.72    0.00000E+00     0.00
   20.00    45.00       6.78 -999.99    6.78    0.00000     0.00  LINEAR    2.92255E-03   116.75    0.00000E+00     0.00
   25.00    45.00       7.08 -999.99    7.08    0.00000     0.00  LINEAR    3.02491E-03    37.69    0.00000E+00     0.00
   30.00    45.00       5.92 -999.99    5.92    0.00000     0.00  LINEAR    2.64613E-03   -34.29    0.00000E+00     0.00
   35.00    45.00       0.67 -999.99    0.67    0.00000     0.00  LINEAR    1.44547E-03  -102.55    0.00000E+00     0.00
   40.00    45.00     -27.39 -999.99  -27.39    0.00000     0.00  LINEAR    5.72118E-05    86.78    0.00000E+00     0.00
   45.00    45.00      -3.17 -999.99   -3.17    0.00000     0.00  LINEAR    9.29187E-04   -54.88    0.00000E+00     0.00
   50.00    45.00      -5.15 -999.99   -5.15    0.00000     0.00  LINEAR    7.39822E-04  -111.45    0.00000E+00     0.00
   55.00    45.00      -4.46 -999.99   -4.46    0.00000     0.00  LINEAR    8.00897E-04    26.13    0.00000E+00     0.00
   60.00    45.00       2.47 -999.99    2.47    0.00000     0.00  LINEAR    1.77848E-03   -16.57    0.00000E+00     0.00
   65.00    45.00      -1.99 -999.99   -1.99    0.00000     0.00  LINEAR    1.06535E-03   -49.54    0.00000E+00     0.00
   70.00    45.00      -9.77 -999.99   -9.77    0.00000     0.00  LINEAR    4.34912E-04    66.81    0.00000E+00     0.00
   75.00    45.00      -6.35 -999.99   -6.35    0.00000     0.00  LINEAR    6.44169E-04    54.99    0.00000E+00     0.00
   80.00    45.00      -6.71 -999.99   -6.71    0.00000     0.00  LINEAR    6.18613E-04  -132.41    0.00000E+00     0.00
   85.00    45.00       0.75 -999.99    0.75    0.00000     0.00  LINEAR    1.45975E-03  -141.98    0.00000E+00     0.00
   90.00    45.00      -6.80 -999.99   -6.80    0.00000     0.00  LINEAR    6.12250E-04  -123.17    0.00000E+00     0.00
    0.00    50.00    -999.99 -999.99 -999.99    0.00000     0.00            0.00000E+00     0.00    0.00000E+00     0.00
    5.00    50.00      -5.80 -999.99   -5.80    0.00000     0.00  LINEAR    6.86867E-04     1.09    0.00000E+00     0.00
   10.00    50.00       0.94 -999.99    0.94    0.00000     0.00  LINEAR    1.49205E-03   -92.35    0.00000E+00     0.00
   15.00    50.00       5.19 -999.99    5.19    0.00000     0.00  LINEAR    2.43444E-03  -170.33    0.00000E+00     0.00
   20.00    50.00       6.64 -999.99    6.64    0.00000     0.00  LINEAR    2.87444E-03   108.37    0.00000E+00     0.00
   25.00    50.00       7.02 -999.99    7.02    0.00000     0.00  LINEAR    3.00503E-03    27.05    0.00000E+00     0.00
   30.00    50.00       5.81 -999.99    5.81    0.00000     0.00  LINEAR    2.61295E-03   -46.88    0.00000E+00     0.00
   35.00    50.00       0.49 -999.99    0.49    0.00000     0.00  LINEAR    1.41699E-03  -117.45    0.00000E+00     0.00
   40.00    50.00     -25.43 -999.99  -25.43    0.00000     0.00  LINEAR    7.16327E-05   114.70    0.00000E+00     0.00
   45.00    50.00      -4.14 -999.99   -4.14    0.00000     0.00  LINEAR    8.31139E-04   -69.14    0.00000E+00     0.00
   50.00    50.00      -5.97 -999.99   -5.97    0.00000     0.00  LINEAR    6.73625E-04  -124.43    0.00000E+00     0.00
   55.00    50.00      -5.84 -999.99   -5.84    0.00000     0.00  LINEAR    6.83282E-04     0.58    0.00000E+00     0.00
   60.00    50.00       1.43 -999.99    1.43    0.00000     0.00  LINEAR    1.57842E-03   -42.35    0.00000E+00     0.00
[...]
   40.00   315.00     -32.12 -999.99  -32.12    0.00000     0.00  LINEAR    3.31517E-05   -38.89    0.00000E+00     0.00
   45.00   315.00      -3.47 -999.99   -3.47    0.00000     0.00  LINEAR    8.97869E-04   132.15    0.00000E+00     0.00
   50.00   315.00      -5.15 -999.99   -5.15    0.00000     0.00  LINEAR    7.39700E-04   156.91    0.00000E+00     0.00
   55.00   315.00      -6.25 -999.99   -6.25    0.00000     0.00  LINEAR    6.52169E-04    -7.15    0.00000E+00     0.00
   60.00   315.00       2.97 -999.99    2.97    0.00000     0.00  LINEAR    1.88454E-03     3.74    0.00000E+00     0.00
   65.00   315.00      -1.32 -999.99   -1.32    0.00000     0.00  LINEAR    1.15047E-03    14.74    0.00000E+00     0.00
   70.00   315.00      -9.14 -999.99   -9.14    0.00000     0.00  LINEAR    4.67249E-04  -176.96    0.00000E+00     0.00
   75.00   315.00      -5.99 -999.99   -5.99    0.00000     0.00  LINEAR    6.71497E-04  -161.78    0.00000E+00     0.00
   80.00   315.00      -6.75 -999.99   -6.75    0.00000     0.00  LINEAR    6.15311E-04    43.75    0.00000E+00     0.00
   85.00   315.00       0.51 -999.99    0.51    0.00000     0.00  LINEAR    1.42043E-03    47.61    0.00000E+00     0.00
   90.00   315.00      -6.87 -999.99   -6.87    0.00000     0.00  LINEAR    6.07355E-04    73.32    0.00000E+00     0.00
    0.00   320.00    -999.99 -999.99 -999.99    0.00000     0.00            0.00000E+00     0.00    0.00000E+00     0.00
    5.00   320.00      -5.36 -999.99   -5.36    0.00000     0.00  LINEAR    7.22734E-04   102.77    0.00000E+00     0.00
   10.00   320.00       0.71 -999.99    0.71    0.00000     0.00  LINEAR    1.45312E-03   122.39    0.00000E+00     0.00
   15.00   320.00       4.81 -999.99    4.81    0.00000     0.00  LINEAR    2.32847E-03   144.86    0.00000E+00     0.00
   20.00   320.00       7.00 -999.99    7.00    0.00000     0.00  LINEAR    2.99651E-03   160.55    0.00000E+00     0.00
   25.00   320.00       6.72 -999.99    6.72    0.00000     0.00  LINEAR    2.90236E-03   177.80    0.00000E+00     0.00
   30.00   320.00       5.28 -999.99    5.28    0.00000     0.00  LINEAR    2.46007E-03  -158.96    0.00000E+00     0.00
   35.00   320.00       0.55 -999.99    0.55    0.00000     0.00  LINEAR    1.42636E-03  -141.27    0.00000E+00     0.00
   40.00   320.00     -57.94 -999.99  -57.94    0.00000     0.00  LINEAR    1.69688E-06    67.24    0.00000E+00     0.00
   45.00   320.00      -3.28 -999.99   -3.28    0.00000     0.00  LINEAR    9.18202E-04    70.16    0.00000E+00     0.00
   50.00   320.00      -5.66 -999.99   -5.66    0.00000     0.00  LINEAR    6.97937E-04    96.50    0.00000E+00     0.00
   55.00   320.00      -7.99 -999.99   -7.99    0.00000     0.00  LINEAR    5.33914E-04   -92.29    0.00000E+00     0.00
   60.00   320.00       1.45 -999.99    1.45    0.00000     0.00  LINEAR    1.58134E-03   -69.25    0.00000E+00     0.00
   65.00   320.00      -2.40 -999.99   -2.40    0.00000     0.00  LINEAR    1.01615E-03   -58.74    0.00000E+00     0.00
   70.00   320.00      -9.28 -999.99   -9.28    0.00000     0.00  LINEAR    4.60142E-04   108.14    0.00000E+00     0.00
   75.00   320.00      -6.13 -999.99   -6.13    0.00000     0.00  LINEAR    6.61293E-04   118.28    0.00000E+00     0.00
   80.00   320.00      -6.72 -999.99   -6.72    0.00000     0.00  LINEAR    6.17876E-04   -35.16    0.00000E+00     0.00
   85.00   320.00       0.46 -999.99    0.46    0.00000     0.00  LINEAR    1.41093E-03   -33.60    0.00000E+00     0.00
   90.00   320.00      -6.67 -999.99   -6.67    0.00000     0.00  LINEAR    6.21296E-04    -7.29    0.00000E+00     0.00
    0.00   325.00    -999.99 -999.99 -999.99    0.00000     0.00            0.00000E+00     0.00    0.00000E+00     0.00
    5.00   325.00      -5.35 -999.99   -5.35    0.00000     0.00  LINEAR    7.23288E-04    95.15    0.00000E+00     0.00
   10.00   325.00       0.71 -999.99    0.71    0.00000     0.00  LINEAR    1.45374E-03   106.94    0.00000E+00     0.00
   15.00   325.00       4.62 -999.99    4.62    0.00000     0.00  LINEAR    2.27926E-03   122.33    0.00000E+00     0.00
   20.00   325.00       6.84 -999.99    6.84    0.00000     0.00  LINEAR    2.94294E-03   131.58    0.00000E+00     0.00
   25.00   325.00       6.75 -999.99    6.75    0.00000     0.00  LINEAR    2.91377E-03   141.35    0.00000E+00     0.00
   30.00   325.00       5.13 -999.99    5.13    0.00000     0.00  LINEAR    2.41802E-03   157.03    0.00000E+00     0.00
   35.00   325.00       0.44 -999.99    0.44    0.00000     0.00  LINEAR    1.40835E-03   166.71    0.00000E+00     0.00
   40.00   325.00     -50.10 -999.99  -50.10    0.00000     0.00  LINEAR    4.18337E-06   149.69    0.00000E+00     0.00
   45.00   325.00      -3.06 -999.99   -3.06    0.00000     0.00  LINEAR    9.41699E-04     4.89    0.00000E+00     0.00
   50.00   325.00      -6.91 -999.99   -6.91    0.00000     0.00  LINEAR    6.04480E-04    22.22    0.00000E+00     0.00
   55.00   325.00      -5.67 -999.99   -5.67    0.00000     0.00  LINEAR    6.96659E-04  -164.68    0.00000E+00     0.00
   60.00   325.00       1.75 -999.99    1.75    0.00000     0.00  LINEAR    1.63817E-03  -146.89    0.00000E+00     0.00
   65.00   325.00      -1.44 -999.99   -1.44    0.00000     0.00  LINEAR    1.13441E-03  -133.16    0.00000E+00     0.00
   70.00   325.00     -10.86 -999.99  -10.86    0.00000     0.00  LINEAR    3.83424E-04     8.43    0.00000E+00     0.00
   75.00   325.00      -5.99 -999.99   -5.99    0.00000     0.00  LINEAR    6.71697E-04    35.76    0.00000E+00     0.00
   80.00   325.00      -8.01 -999.99   -8.01    0.00000     0.00  LINEAR    5.32485E-04  -132.46    0.00000E+00     0.00
   85.00   325.00       0.05 -999.99    0.05    0.00000     0.00  LINEAR    1.34598E-03  -127.51    0.00000E+00     0.00
   90.00   325.00      -7.83 -999.99   -7.83    0.00000     0.00  LINEAR    5.43536E-04  -101.07    0.00000E+00     0.00
    0.00   330.00    -999.99 -999.99 -999.99    0.00000     0.00            0.00000E+00     0.00    0.00000E+00     0.00
    5.00   330.00      -5.34 -999.99   -5.34    0.00000     0.00  LINEAR    7.24237E-04    87.48    0.00000E+00     0.00
   10.00   330.00       0.73 -999.99    0.73    0.00000     0.00  LINEAR    1.45691E-03    91.38    0.00000E+00     0.00
   15.00   330.00       4.45 -999.99    4.45    0.00000     0.00  LINEAR    2.23462E-03    99.27    0.00000E+00     0.00
   20.00   330.00       6.67 -999.99    6.67    0.00000     0.00  LINEAR    2.88513E-03   102.16    0.00000E+00     0.00
   25.00   330.00       6.83 -999.99    6.83    0.00000     0.00  LINEAR    2.93928E-03   104.33    0.00000E+00     0.00
   30.00   330.00       5.21 -999.99    5.21    0.00000     0.00  LINEAR    2.43841E-03   110.75    0.00000E+00     0.00
   35.00   330.00       0.58 -999.99    0.58    0.00000     0.00  LINEAR    1.43104E-03   114.10    0.00000E+00     0.00
   40.00   330.00     -21.37 -999.99  -21.37    0.00000     0.00  LINEAR    1.14391E-04  -107.79    0.00000E+00     0.00
   45.00   330.00      -2.12 -999.99   -2.12    0.00000     0.00  LINEAR    1.04910E-03   -61.40    0.00000E+00     0.00
   50.00   330.00      -6.41 -999.99   -6.41    0.00000     0.00  LINEAR    6.39943E-04   -52.73    0.00000E+00     0.00
   55.00   330.00      -5.12 -999.99   -5.12    0.00000     0.00  LINEAR    7.42346E-04   137.18    0.00000E+00     0.00
   60.00   330.00       1.83 -999.99    1.83    0.00000     0.00  LINEAR    1.65320E-03   144.88    0.00000E+00     0.00
   65.00   330.00      -1.81 -999.99   -1.81    0.00000     0.00  LINEAR    1.08662E-03   162.49    0.00000E+00     0.00
   70.00   330.00      -8.05 -999.99   -8.05    0.00000     0.00  LINEAR    5.29802E-04   -78.93    0.00000E+00     0.00
   75.00   330.00      -6.08 -999.99   -6.08    0.00000     0.00  LINEAR    6.64855E-04   -43.89    0.00000E+00     0.00
   80.00   330.00      -6.82 -999.99   -6.82    0.00000     0.00  LINEAR    6.10806E-04   138.92    0.00000E+00     0.00
   85.00   330.00       0.75 -999.99    0.75    0.00000     0.00  LINEAR    1.45955E-03   147.19    0.00000E+00     0.00
   90.00   330.00      -6.90 -999.99   -6.90    0.00000     0.00  LINEAR    6.05330E-04   169.99    0.00000E+00     0.00
    0.00   335.00    -999.99 -999.99 -999.99    0.00000     0.00            0.00000E+00     0.00    0.00000E+00     0.00
    5.00   335.00      -5.32 -999.99   -5.32    0.00000     0.00  LINEAR    7.25262E-04    79.85    0.00000E+00     0.00
   10.00   335.00       0.75 -999.99    0.75    0.00000     0.00  LINEAR    1.45941E-03    75.86    0.00000E+00     0.00
   15.00   335.00       4.30 -999.99    4.30    0.00000     0.00  LINEAR    2.19587E-03    75.84    0.00000E+00     0.00
   20.00   335.00       6.52 -999.99    6.52    0.00000     0.00  LINEAR    2.83469E-03    72.10    0.00000E+00     0.00
   25.00   335.00       7.04 -999.99    7.04    0.00000     0.00  LINEAR    3.01003E-03    67.26    0.00000E+00     0.00
   30.00   335.00       5.64 -999.99    5.64    0.00000     0.00  LINEAR    2.56342E-03    65.50    0.00000E+00     0.00
   35.00   335.00       0.70 -999.99    0.70    0.00000     0.00  LINEAR    1.45088E-03    62.64    0.00000E+00     0.00
   40.00   335.00     -14.11 -999.99  -14.11    0.00000     0.00  LINEAR    2.63789E-04  -122.30    0.00000E+00     0.00
   45.00   335.00      -1.37 -999.99   -1.37    0.00000     0.00  LINEAR    1.14321E-03  -120.93    0.00000E+00     0.00
   50.00   335.00      -6.37 -999.99   -6.37    0.00000     0.00  LINEAR    6.43038E-04  -119.24    0.00000E+00     0.00
   55.00   335.00      -6.49 -999.99   -6.49    0.00000     0.00  LINEAR    6.33967E-04    68.66    0.00000E+00     0.00
   60.00   335.00       0.87 -999.99    0.87    0.00000     0.00  LINEAR    1.48042E-03    69.16    0.00000E+00     0.00
   65.00   335.00      -4.11 -999.99   -4.11    0.00000     0.00  LINEAR    8.33760E-04    80.15    0.00000E+00     0.00
   70.00   335.00      -7.14 -999.99   -7.14    0.00000     0.00  LINEAR    5.88583E-04  -142.24    0.00000E+00     0.00
   75.00   335.00      -6.06 -999.99   -6.06    0.00000     0.00  LINEAR    6.66657E-04  -126.81    0.00000E+00     0.00
   80.00   335.00      -6.30 -999.99   -6.30    0.00000     0.00  LINEAR    6.48433E-04    59.14    0.00000E+00     0.00
   85.00   335.00       0.86 -999.99    0.86    0.00000     0.00  LINEAR    1.47762E-03    63.12    0.00000E+00     0.00
   90.00   335.00      -6.90 -999.99   -6.90    0.00000     0.00  LINEAR    6.05301E-04    85.88    0.00000E+00     0.00
    0.00   340.00    -999.99 -999.99 -999.99    0.00000     0.00            0.00000E+00     0.00    0.00000E+00     0.00
    5.00   340.00      -5.32 -999.99   -5.32    0.00000     0.00  LINEAR    7.26047E-04    72.30    0.00000E+00     0.00
   10.00   340.00       0.75 -999.99    0.75    0.00000     0.00  LINEAR    1.45880E-03    60.44    0.00000E+00     0.00
   15.00   340.00       4.19 -999.99    4.19    0.00000     0.00  LINEAR    2.16985E-03    52.22    0.00000E+00     0.00
   20.00   340.00       6.46 -999.99    6.46    0.00000     0.00  LINEAR    2.81736E-03    41.83    0.00000E+00     0.00
   25.00   340.00       7.28 -999.99    7.28    0.00000     0.00  LINEAR    3.09404E-03    31.41    0.00000E+00     0.00
   30.00   340.00       5.94 -999.99    5.94    0.00000     0.00  LINEAR    2.65330E-03    22.88    0.00000E+00     0.00
   35.00   340.00       0.74 -999.99    0.74    0.00000     0.00  LINEAR    1.45863E-03    11.19    0.00000E+00     0.00
   40.00   340.00     -12.18 -999.99  -12.18    0.00000     0.00  LINEAR    3.29528E-04  -141.51    0.00000E+00     0.00
   45.00   340.00      -1.27 -999.99   -1.27    0.00000     0.00  LINEAR    1.15634E-03  -178.50    0.00000E+00     0.00
   50.00   340.00      -6.85 -999.99   -6.85    0.00000     0.00  LINEAR    6.08415E-04   174.35    0.00000E+00     0.00
   55.00   340.00      -6.47 -999.99   -6.47    0.00000     0.00  LINEAR    6.36042E-04   -10.12    0.00000E+00     0.00
   60.00   340.00       0.77 -999.99    0.77    0.00000     0.00  LINEAR    1.46299E-03    -9.43    0.00000E+00     0.00
   65.00   340.00      -3.38 -999.99   -3.38    0.00000     0.00  LINEAR    9.07496E-04   -10.00    0.00000E+00     0.00
   70.00   340.00     -10.29 -999.99  -10.29    0.00000     0.00  LINEAR    4.09587E-04   135.85    0.00000E+00     0.00
   75.00   340.00      -6.71 -999.99   -6.71    0.00000     0.00  LINEAR    6.18365E-04   140.84    0.00000E+00     0.00
   80.00   340.00      -7.42 -999.99   -7.42    0.00000     0.00  LINEAR    5.70019E-04   -27.25    0.00000E+00     0.00
   85.00   340.00      -0.01 -999.99   -0.01    0.00000     0.00  LINEAR    1.33658E-03   -28.75    0.00000E+00     0.00
   90.00   340.00      -8.06 -999.99   -8.06    0.00000     0.00  LINEAR    5.29066E-04    -1.61    0.00000E+00     0.00
    0.00   345.00    -999.99 -999.99 -999.99    0.00000     0.00            0.00000E+00     0.00    0.00000E+00     0.00
    5.00   345.00      -5.31 -999.99   -5.31    0.00000     0.00  LINEAR    7.26327E-04    64.89    0.00000E+00     0.00
   10.00   345.00       0.72 -999.99    0.72    0.00000     0.00  LINEAR    1.45446E-03    45.11    0.00000E+00     0.00
   15.00   345.00       4.17 -999.99    4.17    0.00000     0.00  LINEAR    2.16294E-03    28.76    0.00000E+00     0.00
   20.00   345.00       6.51 -999.99    6.51    0.00000     0.00  LINEAR    2.83147E-03    12.22    0.00000E+00     0.00
   25.00   345.00       7.35 -999.99    7.35    0.00000     0.00  LINEAR    3.11994E-03    -3.38    0.00000E+00     0.00
   30.00   345.00       5.91 -999.99    5.91    0.00000     0.00  LINEAR    2.64387E-03   -19.43    0.00000E+00     0.00
   35.00   345.00       0.92 -999.99    0.92    0.00000     0.00  LINEAR    1.48917E-03   -39.29    0.00000E+00     0.00
   40.00   345.00     -13.10 -999.99  -13.10    0.00000     0.00  LINEAR    2.96343E-04  -164.21    0.00000E+00     0.00
   45.00   345.00      -1.81 -999.99   -1.81    0.00000     0.00  LINEAR    1.08661E-03   125.99    0.00000E+00     0.00
   50.00   345.00      -7.52 -999.99   -7.52    0.00000     0.00  LINEAR    5.63148E-04   107.64    0.00000E+00     0.00
   55.00   345.00      -5.49 -999.99   -5.49    0.00000     0.00  LINEAR    7.11378E-04   -85.68    0.00000E+00     0.00
   60.00   345.00       0.92 -999.99    0.92    0.00000     0.00  LINEAR    1.48767E-03   -90.29    0.00000E+00     0.00
   65.00   345.00      -3.06 -999.99   -3.06    0.00000     0.00  LINEAR    9.40816E-04   -91.34    0.00000E+00     0.00
   70.00   345.00      -8.34 -999.99   -8.34    0.00000     0.00  LINEAR    5.12494E-04    56.85    0.00000E+00     0.00
   75.00   345.00      -4.70 -999.99   -4.70    0.00000     0.00  LINEAR    7.79329E-04    59.04    0.00000E+00     0.00
   80.00   345.00      -5.56 -999.99   -5.56    0.00000     0.00  LINEAR    7.05591E-04  -103.95    0.00000E+00     0.00
   85.00   345.00       1.84 -999.99    1.84    0.00000     0.00  LINEAR    1.65442E-03  -109.86    0.00000E+00     0.00
   90.00   345.00      -6.99 -999.99   -6.99    0.00000     0.00  LINEAR    5.99085E-04   -87.54    0.00000E+00     0.00
    0.00   350.00    -999.99 -999.99 -999.99    0.00000     0.00            0.00000E+00     0.00    0.00000E+00     0.00
    5.00   350.00      -5.32 -999.99   -5.32    0.00000     0.00  LINEAR    7.25928E-04    57.66    0.00000E+00     0.00
   10.00   350.00       0.68 -999.99    0.68    0.00000     0.00  LINEAR    1.44774E-03    29.90    0.00000E+00     0.00
   15.00   350.00       4.21 -999.99    4.21    0.00000     0.00  LINEAR    2.17284E-03     5.95    0.00000E+00     0.00
   20.00   350.00       6.55 -999.99    6.55    0.00000     0.00  LINEAR    2.84699E-03   -16.21    0.00000E+00     0.00
   25.00   350.00       7.27 -999.99    7.27    0.00000     0.00  LINEAR    3.09134E-03   -38.10    0.00000E+00     0.00
   30.00   350.00       5.84 -999.99    5.84    0.00000     0.00  LINEAR    2.62406E-03   -62.19    0.00000E+00     0.00
   35.00   350.00       1.04 -999.99    1.04    0.00000     0.00  LINEAR    1.50949E-03   -87.34    0.00000E+00     0.00
   40.00   350.00     -16.31 -999.99  -16.31    0.00000     0.00  LINEAR    2.04689E-04   171.26    0.00000E+00     0.00
   45.00   350.00      -3.16 -999.99   -3.16    0.00000     0.00  LINEAR    9.30962E-04    66.31    0.00000E+00     0.00
   50.00   350.00      -7.89 -999.99   -7.89    0.00000     0.00  LINEAR    5.40022E-04    38.66    0.00000E+00     0.00
   55.00   350.00      -4.04 -999.99   -4.04    0.00000     0.00  LINEAR    8.41098E-04  -150.08    0.00000E+00     0.00
   60.00   350.00       1.98 -999.99    1.98    0.00000     0.00  LINEAR    1.68087E-03  -162.95    0.00000E+00     0.00
   65.00   350.00      -2.43 -999.99   -2.43    0.00000     0.00  LINEAR    1.01232E-03  -169.36    0.00000E+00     0.00
   70.00   350.00     -10.87 -999.99  -10.87    0.00000     0.00  LINEAR    3.82871E-04   -15.88    0.00000E+00     0.00
   75.00   350.00      -5.79 -999.99   -5.79    0.00000     0.00  LINEAR    6.87180E-04   -16.59    0.00000E+00     0.00
   80.00   350.00      -8.44 -999.99   -8.44    0.00000     0.00  LINEAR    5.06912E-04  -178.79    0.00000E+00     0.00
   85.00   350.00      -0.12 -999.99   -0.12    0.00000     0.00  LINEAR    1.32041E-03   171.63    0.00000E+00     0.00
   90.00   350.00      -8.72 -999.99   -8.72    0.00000     0.00  LINEAR    4.90365E-04  -170.39    0.00000E+00     0.00
    0.00   355.00    -999.99 -999.99 -999.99    0.00000     0.00            0.00000E+00     0.00    0.00000E+00     0.00
    5.00   355.00      -5.33 -999.99   -5.33    0.00000     0.00  LINEAR    7.24781E-04    50.65    0.00000E+00     0.00
   10.00   355.00       0.64 -999.99    0.64    0.00000     0.00  LINEAR    1.44132E-03    14.85    0.00000E+00     0.00
   15.00   355.00       4.27 -999.99    4.27    0.00000     0.00  LINEAR    2.18902E-03   -15.94    0.00000E+00     0.00
   20.00   355.00       6.52 -999.99    6.52    0.00000     0.00  LINEAR    2.83578E-03   -43.51    0.00000E+00     0.00
   25.00   355.00       7.19 -999.99    7.19    0.00000     0.00  LINEAR    3.06393E-03   -72.56    0.00000E+00     0.00
   30.00   355.00       5.86 -999.99    5.86    0.00000     0.00  LINEAR    2.62788E-03  -103.65    0.00000E+00     0.00
   35.00   355.00       0.95 -999.99    0.95    0.00000     0.00  LINEAR    1.49363E-03  -134.14    0.00000E+00     0.00
   40.00   355.00     -22.93 -999.99  -22.93    0.00000     0.00  LINEAR    9.55572E-05   141.94    0.00000E+00     0.00
   45.00   355.00      -3.51 -999.99   -3.51    0.00000     0.00  LINEAR    8.93701E-04     1.48    0.00000E+00     0.00
   50.00   355.00      -7.46 -999.99   -7.46    0.00000     0.00  LINEAR    5.67360E-04   -26.56    0.00000E+00     0.00
   55.00   355.00      -4.50 -999.99   -4.50    0.00000     0.00  LINEAR    7.97716E-04   151.97    0.00000E+00     0.00
   60.00   355.00       1.79 -999.99    1.79    0.00000     0.00  LINEAR    1.64610E-03   129.54    0.00000E+00     0.00
   65.00   355.00      -2.62 -999.99   -2.62    0.00000     0.00  LINEAR    9.90356E-04   115.09    0.00000E+00     0.00
   70.00   355.00     -10.21 -999.99  -10.21    0.00000     0.00  LINEAR    4.13414E-04   -97.02    0.00000E+00     0.00
   75.00   355.00      -5.97 -999.99   -5.97    0.00000     0.00  LINEAR    6.73279E-04  -101.76    0.00000E+00     0.00
   80.00   355.00      -7.20 -999.99   -7.20    0.00000     0.00  LINEAR    5.84235E-04    91.44    0.00000E+00     0.00
   85.00   355.00       0.56 -999.99    0.56    0.00000     0.00  LINEAR    1.42786E-03    83.51    0.00000E+00     0.00
   90.00   355.00      -7.11 -999.99   -7.11    0.00000     0.00  LINEAR    5.90728E-04   101.49    0.00000E+00     0.00






 ***** DATA CARD NO. 16   EN   0     0     0     0  0.00000E+00  0.00000E+00  0.00000E+00  0.00000E+00  0.00000E+00  0.00000E+00

 RUN TIME =     0.219
