1



                                 *********************************************

                                    NUMERICAL ELECTROMAGNETICS CODE (NEC-2D)

                                 *********************************************




                                     - - - - COMMENTS - - - -


                                                                                                     
                                                                                                     




                                 - - - STRUCTURE SPECIFICATION - - -

                                     COORDINATES MUST BE INPUT IN
                                     METERS OR BE SCALED TO METERS
                                     BEFORE STRUCTURE INPUT IS ENDED


  WIRE                                                                               NO. OF    FIRST  LAST     TAG
  NO.        X1         Y1         Z1          X2         Y2         Z2      RADIUS   SEG.     SEG.   SEG.     NO.
     1   -7.50000   -5.00000   -5.00000    -7.50000   -5.00000    5.00000    0.00100     20        1    20     101
     2   -2.50000   -5.00000   -5.00000    -2.50000   -5.00000    5.00000    0.00100     20       21    40     102
     3    2.50000   -5.00000   -5.00000     2.50000   -5.00000    5.00000    0.00100     20       41    60     103
     4    7.50000   -5.00000   -5.00000     7.50000   -5.00000    5.00000    0.00100     20       61    80     104
     5   -7.50000    0.00000   -5.00000    -7.50000    0.00000    5.00000    0.00100     20       81   100     201
     6   -2.50000    0.00000   -5.00000    -2.50000    0.00000    5.00000    0.00100     20      101   120     202
     7    2.50000    0.00000   -5.00000     2.50000    0.00000    5.00000    0.00100     20      121   140     203
     8    7.50000    0.00000   -5.00000     7.50000    0.00000    5.00000    0.00100     20      141   160     204
     9   -7.50000    5.00000   -5.00000    -7.50000    5.00000    5.00000    0.00100     20      161   180     301
    10   -2.50000    5.00000   -5.00000    -2.50000    5.00000    5.00000    0.00100     20      181   200     302
    11    2.50000    5.00000   -5.00000     2.50000    5.00000    5.00000    0.00100     20      201   220     303
    12    7.50000    5.00000   -5.00000     7.50000    5.00000    5.00000    0.00100     20      221   240     304

   TOTAL SEGMENTS USED=  240     NO. SEG. IN A SYMMETRIC CELL=  240     SYMMETRY FLAG=  0


         - MULTIPLE WIRE JUNCTIONS -
 JUNCTION    SEGMENTS  (- FOR END 1, + FOR END 2)
  NONE




                                 - - - - SEGMENTATION DATA - - - -

                                        COORDINATES IN METERS

                         I+ AND I- INDICATE THE SEGMENTS BEFORE AND AFTER I


  SEG.   COORDINATES OF SEG. CENTER     SEG.     ORIENTATION ANGLES    WIRE    CONNECTION DATA   TAG
  NO.       X         Y         Z       LENGTH     ALPHA     BETA      RADIUS    I-   I    I+    NO.
     1  -7.50000  -5.00000  -4.75000   0.50000   90.00000   0.00000   0.00100     0    1    2    101
     2  -7.50000  -5.00000  -4.25000   0.50000   90.00000   0.00000   0.00100     1    2    3    101
     3  -7.50000  -5.00000  -3.75000   0.50000   90.00000   0.00000   0.00100     2    3    4    101
     4  -7.50000  -5.00000  -3.25000   0.50000   90.00000   0.00000   0.00100     3    4    5    101
     5  -7.50000  -5.00000  -2.75000   0.50000   90.00000   0.00000   0.00100     4    5    6    101
     6  -7.50000  -5.00000  -2.25000   0.50000   90.00000   0.00000   0.00100     5    6    7    101
     7  -7.50000  -5.00000  -1.75000   0.50000   90.00000   0.00000   0.00100     6    7    8    101
     8  -7.50000  -5.00000  -1.25000   0.50000   90.00000   0.00000   0.00100     7    8    9    101
     9  -7.50000  -5.00000  -0.75000   0.50000   90.00000   0.00000   0.00100     8    9   10    101
    10  -7.50000  -5.00000  -0.25000   0.50000   90.00000   0.00000   0.00100     9   10   11    101
    11  -7.50000  -5.00000   0.25000   0.50000   90.00000   0.00000   0.00100    10   11   12    101
    12  -7.50000  -5.00000   0.75000   0.50000   90.00000   0.00000   0.00100    11   12   13    101
    13  -7.50000  -5.00000   1.25000   0.50000   90.00000   0.00000   0.00100    12   13   14    101
    14  -7.50000  -5.00000   1.75000   0.50000   90.00000   0.00000   0.00100    13   14   15    101
    15  -7.50000  -5.00000   2.25000   0.50000   90.00000   0.00000   0.00100    14   15   16    101
    16  -7.50000  -5.00000   2.75000   0.50000   90.00000   0.00000   0.00100    15   16   17    101
    17  -7.50000  -5.00000   3.25000   0.50000   90.00000   0.00000   0.00100    16   17   18    101
    18  -7.50000  -5.00000   3.75000   0.50000   90.00000   0.00000   0.00100    17   18   19    101
    19  -7.50000  -5.00000   4.25000   0.50000   90.00000   0.00000   0.00100    18   19   20    101
    20  -7.50000  -5.00000   4.75000   0.50000   90.00000   0.00000   0.00100    19   20    0    101
    21  -2.50000  -5.00000  -4.75000   0.50000   90.00000   0.00000   0.00100     0   21   22    102
    22  -2.50000  -5.00000  -4.25000   0.50000   90.00000   0.00000   0.00100    21   22   23    102
    23  -2.50000  -5.00000  -3.75000   0.50000   90.00000   0.00000   0.00100    22   23   24    102
    24  -2.50000  -5.00000  -3.25000   0.50000   90.00000   0.00000   0.00100    23   24   25    102
    25  -2.50000  -5.00000  -2.75000   0.50000   90.00000   0.00000   0.00100    24   25   26    102
    26  -2.50000  -5.00000  -2.25000   0.50000   90.00000   0.00000   0.00100    25   26   27    102
    27  -2.50000  -5.00000  -1.75000   0.50000   90.00000   0.00000   0.00100    26   27   28    102
    28  -2.50000  -5.00000  -1.25000   0.50000   90.00000   0.00000   0.00100    27   28   29    102
    29  -2.50000  -5.00000  -0.75000   0.50000   90.00000   0.00000   0.00100    28   29   30    102
    30  -2.50000  -5.00000  -0.25000   0.50000   90.00000   0.00000   0.00100    29   30   31    102
    31  -2.50000  -5.00000   0.25000   0.50000   90.00000   0.00000   0.00100    30   31   32    102
    32  -2.50000  -5.00000   0.75000   0.50000   90.00000   0.00000   0.00100    31   32   33    102
    33  -2.50000  -5.00000   1.25000   0.50000   90.00000   0.00000   0.00100    32   33   34    102
    34  -2.50000  -5.00000   1.75000   0.50000   90.00000   0.00000   0.00100    33   34   35    102
    35  -2.50000  -5.00000   2.25000   0.50000   90.00000   0.00000   0.00100    34   35   36    102
    36  -2.50000  -5.00000   2.75000   0.50000   90.00000   0.00000   0.00100    35   36   37    102
    37  -2.50000  -5.00000   3.25000   0.50000   90.00000   0.00000   0.00100    36   37   38    102
    38  -2.50000  -5.00000   3.75000   0.50000   90.00000   0.00000   0.00100    37   38   39    102
    39  -2.50000  -5.00000   4.25000   0.50000   90.00000   0.00000   0.00100    38   39   40    102
    40  -2.50000  -5.00000   4.75000   0.50000   90.00000   0.00000   0.00100    39   40    0    102
    41   2.50000  -5.00000  -4.75000   0.50000   90.00000   0.00000   0.00100     0   41   42    103
    42   2.50000  -5.00000  -4.25000   0.50000   90.00000   0.00000   0.00100    41   42   43    103
    43   2.50000  -5.00000  -3.75000   0.50000   90.00000   0.00000   0.00100    42   43   44    103
    44   2.50000  -5.00000  -3.25000   0.50000   90.00000   0.00000   0.00100    43   44   45    103
    45   2.50000  -5.00000  -2.75000   0.50000   90.00000   0.00000   0.00100    44   45   46    103
    46   2.50000  -5.00000  -2.25000   0.50000   90.00000   0.00000   0.00100    45   46   47    103
    47   2.50000  -5.00000  -1.75000   0.50000   90.00000   0.00000   0.00100    46   47   48    103
    48   2.50000  -5.00000  -1.25000   0.50000   90.00000   0.00000   0.00100    47   48   49    103
    49   2.50000  -5.00000  -0.75000   0.50000   90.00000   0.00000   0.00100    48   49   50    103
    50   2.50000  -5.00000  -0.25000   0.50000   90.00000   0.00000   0.00100    49   50   51    103
    51   2.50000  -5.00000   0.25000   0.50000   90.00000   0.00000   0.00100    50   51   52    103
    52   2.50000  -5.00000   0.75000   0.50000   90.00000   0.00000   0.00100    51   52   53    103
    53   2.50000  -5.00000   1.25000   0.50000   90.00000   0.00000   0.00100    52   53   54    103
    54   2.50000  -5.00000   1.75000   0.50000   90.00000   0.00000   0.00100    53   54   55    103
    55   2.50000  -5.00000   2.25000   0.50000   90.00000   0.00000   0.00100    54   55   56    103
    56   2.50000  -5.00000   2.75000   0.50000   90.00000   0.00000   0.00100    55   56   57    103
    57   2.50000  -5.00000   3.25000   0.50000   90.00000   0.00000   0.00100    56   57   58    103
    58   2.50000  -5.00000   3.75000   0.50000   90.00000   0.00000   0.00100    57   58   59    103
    59   2.50000  -5.00000   4.25000   0.50000   90.00000   0.00000   0.00100    58   59   60    103
    60   2.50000  -5.00000   4.75000   0.50000   90.00000   0.00000   0.00100    59   60    0    103
    61   7.50000  -5.00000  -4.75000   0.50000   90.00000   0.00000   0.00100     0   61   62    104
    62   7.50000  -5.00000  -4.25000   0.50000   90.00000   0.00000   0.00100    61   62   63    104
    63   7.50000  -5.00000  -3.75000   0.50000   90.00000   0.00000   0.00100    62   63   64    104
    64   7.50000  -5.00000  -3.25000   0.50000   90.00000   0.00000   0.00100    63   64   65    104
    65   7.50000  -5.00000  -2.75000   0.50000   90.00000   0.00000   0.00100    64   65   66    104
    66   7.50000  -5.00000  -2.25000   0.50000   90.00000   0.00000   0.00100    65   66   67    104
    67   7.50000  -5.00000  -1.75000   0.50000   90.00000   0.00000   0.00100    66   67   68    104
    68   7.50000  -5.00000  -1.25000   0.50000   90.00000   0.00000   0.00100    67   68   69    104
    69   7.50000  -5.00000  -0.75000   0.50000   90.00000   0.00000   0.00100    68   69   70    104
    70   7.50000  -5.00000  -0.25000   0.50000   90.00000   0.00000   0.00100    69   70   71    104
    71   7.50000  -5.00000   0.25000   0.50000   90.00000   0.00000   0.00100    70   71   72    104
    72   7.50000  -5.00000   0.75000   0.50000   90.00000   0.00000   0.00100    71   72   73    104
    73   7.50000  -5.00000   1.25000   0.50000   90.00000   0.00000   0.00100    72   73   74    104
    74   7.50000  -5.00000   1.75000   0.50000   90.00000   0.00000   0.00100    73   74   75    104
    75   7.50000  -5.00000   2.25000   0.50000   90.00000   0.00000   0.00100    74   75   76    104
    76   7.50000  -5.00000   2.75000   0.50000   90.00000   0.00000   0.00100    75   76   77    104
    77   7.50000  -5.00000   3.25000   0.50000   90.00000   0.00000   0.00100    76   77   78    104
    78   7.50000  -5.00000   3.75000   0.50000   90.00000   0.00000   0.00100    77   78   79    104
    79   7.50000  -5.00000   4.25000   0.50000   90.00000   0.00000   0.00100    78   79   80    104
    80   7.50000  -5.00000   4.75000   0.50000   90.00000   0.00000   0.00100    79   80    0    104
    81  -7.50000   0.00000  -4.75000   0.50000   90.00000   0.00000   0.00100     0   81   82    201
    82  -7.50000   0.00000  -4.25000   0.50000   90.00000   0.00000   0.00100    81   82   83    201
    83  -7.50000   0.00000  -3.75000   0.50000   90.00000   0.00000   0.00100    82   83   84    201
    84  -7.50000   0.00000  -3.25000   0.50000   90.00000   0.00000   0.00100    83   84   85    201
    85  -7.50000   0.00000  -2.75000   0.50000   90.00000   0.00000   0.00100    84   85   86    201
    86  -7.50000   0.00000  -2.25000   0.50000   90.00000   0.00000   0.00100    85   86   87    201
    87  -7.50000   0.00000  -1.75000   0.50000   90.00000   0.00000   0.00100    86   87   88    201
    88  -7.50000   0.00000  -1.25000   0.50000   90.00000   0.00000   0.00100    87   88   89    201
    89  -7.50000   0.00000  -0.75000   0.50000   90.00000   0.00000   0.00100    88   89   90    201
    90  -7.50000   0.00000  -0.25000   0.50000   90.00000   0.00000   0.00100    89   90   91    201
    91  -7.50000   0.00000   0.25000   0.50000   90.00000   0.00000   0.00100    90   91   92    201
    92  -7.50000   0.00000   0.75000   0.50000   90.00000   0.00000   0.00100    91   92   93    201
    93  -7.50000   0.00000   1.25000   0.50000   90.00000   0.00000   0.00100    92   93   94    201
    94  -7.50000   0.00000   1.75000   0.50000   90.00000   0.00000   0.00100    93   94   95    201
    95  -7.50000   0.00000   2.25000   0.50000   90.00000   0.00000   0.00100    94   95   96    201
    96  -7.50000   0.00000   2.75000   0.50000   90.00000   0.00000   0.00100    95   96   97    201
    97  -7.50000   0.00000   3.25000   0.50000   90.00000   0.00000   0.00100    96   97   98    201
    98  -7.50000   0.00000   3.75000   0.50000   90.00000   0.00000   0.00100    97   98   99    201
    99  -7.50000   0.00000   4.25000   0.50000   90.00000   0.00000   0.00100    98   99  100    201
   100  -7.50000   0.00000   4.75000   0.50000   90.00000   0.00000   0.00100    99  100    0    201
   101  -2.50000   0.00000  -4.75000   0.50000   90.00000   0.00000   0.00100     0  101  102    202
   102  -2.50000   0.00000  -4.25000   0.50000   90.00000   0.00000   0.00100   101  102  103    202
   103  -2.50000   0.00000  -3.75000   0.50000   90.00000   0.00000   0.00100   102  103  104    202
   104  -2.50000   0.00000  -3.25000   0.50000   90.00000   0.00000   0.00100   103  104  105    202
   105  -2.50000   0.00000  -2.75000   0.50000   90.00000   0.00000   0.00100   104  105  106    202
   106  -2.50000   0.00000  -2.25000   0.50000   90.00000   0.00000   0.00100   105  106  107    202
   107  -2.50000   0.00000  -1.75000   0.50000   90.00000   0.00000   0.00100   106  107  108    202
   108  -2.50000   0.00000  -1.25000   0.50000   90.00000   0.00000   0.00100   107  108  109    202
   109  -2.50000   0.00000  -0.75000   0.50000   90.00000   0.00000   0.00100   108  109  110    202
   110  -2.50000   0.00000  -0.25000   0.50000   90.00000   0.00000   0.00100   109  110  111    202
   111  -2.50000   0.00000   0.25000   0.50000   90.00000   0.00000   0.00100   110  111  112    202
   112  -2.50000   0.00000   0.75000   0.50000   90.00000   0.00000   0.00100   111  112  113    202
   113  -2.50000   0.00000   1.25000   0.50000   90.00000   0.00000   0.00100   112  113  114    202
   114  -2.50000   0.00000   1.75000   0.50000   90.00000   0.00000   0.00100   113  114  115    202
   115  -2.50000   0.00000   2.25000   0.50000   90.00000   0.00000   0.00100   114  115  116    202
   116  -2.50000   0.00000   2.75000   0.50000   90.00000   0.00000   0.00100   115  116  117    202
   117  -2.50000   0.00000   3.25000   0.50000   90.00000   0.00000   0.00100   116  117  118    202
   118  -2.50000   0.00000   3.75000   0.50000   90.00000   0.00000   0.00100   117  118  119    202
   119  -2.50000   0.00000   4.25000   0.50000   90.00000   0.00000   0.00100   118  119  120    202
   120  -2.50000   0.00000   4.75000   0.50000   90.00000   0.00000   0.00100   119  120    0    202
   121   2.50000   0.00000  -4.75000   0.50000   90.00000   0.00000   0.00100     0  121  122    203
   122   2.50000   0.00000  -4.25000   0.50000   90.00000   0.00000   0.00100   121  122  123    203
   123   2.50000   0.00000  -3.75000   0.50000   90.00000   0.00000   0.00100   122  123  124    203
   124   2.50000   0.00000  -3.25000   0.50000   90.00000   0.00000   0.00100   123  124  125    203
   125   2.50000   0.00000  -2.75000   0.50000   90.00000   0.00000   0.00100   124  125  126    203
   126   2.50000   0.00000  -2.25000   0.50000   90.00000   0.00000   0.00100   125  126  127    203
   127   2.50000   0.00000  -1.75000   0.50000   90.00000   0.00000   0.00100   126  127  128    203
   128   2.50000   0.00000  -1.25000   0.50000   90.00000   0.00000   0.00100   127  128  129    203
   129   2.50000   0.00000  -0.75000   0.50000   90.00000   0.00000   0.00100   128  129  130    203
   130   2.50000   0.00000  -0.25000   0.50000   90.00000   0.00000   0.00100   129  130  131    203
   131   2.50000   0.00000   0.25000   0.50000   90.00000   0.00000   0.00100   130  131  132    203
   132   2.50000   0.00000   0.75000   0.50000   90.00000   0.00000   0.00100   131  132  133    203
   133   2.50000   0.00000   1.25000   0.50000   90.00000   0.00000   0.00100   132  133  134    203
   134   2.50000   0.00000   1.75000   0.50000   90.00000   0.00000   0.00100   133  134  135    203
   135   2.50000   0.00000   2.25000   0.50000   90.00000   0.00000   0.00100   134  135  136    203
   136   2.50000   0.00000   2.75000   0.50000   90.00000   0.00000   0.00100   135  136  137    203
   137   2.50000   0.00000   3.25000   0.50000   90.00000   0.00000   0.00100   136  137  138    203
   138   2.50000   0.00000   3.75000   0.50000   90.00000   0.00000   0.00100   137  138  139    203
   139   2.50000   0.00000   4.25000   0.50000   90.00000   0.00000   0.00100   138  139  140    203
   140   2.50000   0.00000   4.75000   0.50000   90.00000   0.00000   0.00100   139  140    0    203
   141   7.50000   0.00000  -4.75000   0.50000   90.00000   0.00000   0.00100     0  141  142    204
   142   7.50000   0.00000  -4.25000   0.50000   90.00000   0.00000   0.00100   141  142  143    204
   143   7.50000   0.00000  -3.75000   0.50000   90.00000   0.00000   0.00100   142  143  144    204
   144   7.50000   0.00000  -3.25000   0.50000   90.00000   0.00000   0.00100   143  144  145    204
   145   7.50000   0.00000  -2.75000   0.50000   90.00000   0.00000   0.00100   144  145  146    204
   146   7.50000   0.00000  -2.25000   0.50000   90.00000   0.00000   0.00100   145  146  147    204
   147   7.50000   0.00000  -1.75000   0.50000   90.00000   0.00000   0.00100   146  147  148    204
   148   7.50000   0.00000  -1.25000   0.50000   90.00000   0.00000   0.00100   147  148  149    204
   149   7.50000   0.00000  -0.75000   0.50000   90.00000   0.00000   0.00100   148  149  150    204
   150   7.50000   0.00000  -0.25000   0.50000   90.00000   0.00000   0.00100   149  150  151    204
   151   7.50000   0.00000   0.25000   0.50000   90.00000   0.00000   0.00100   150  151  152    204
   152   7.50000   0.00000   0.75000   0.50000   90.00000   0.00000   0.00100   151  152  153    204
   153   7.50000   0.00000   1.25000   0.50000   90.00000   0.00000   0.00100   152  153  154    204
   154   7.50000   0.00000   1.75000   0.50000   90.00000   0.00000   0.00100   153  154  155    204
   155   7.50000   0.00000   2.25000   0.50000   90.00000   0.00000   0.00100   154  155  156    204
   156   7.50000   0.00000   2.75000   0.50000   90.00000   0.00000   0.00100   155  156  157    204
   157   7.50000   0.00000   3.25000   0.50000   90.00000   0.00000   0.00100   156  157  158    204
   158   7.50000   0.00000   3.75000   0.50000   90.00000   0.00000   0.00100   157  158  159    204
   159   7.50000   0.00000   4.25000   0.50000   90.00000   0.00000   0.00100   158  159  160    204
   160   7.50000   0.00000   4.75000   0.50000   90.00000   0.00000   0.00100   159  160    0    204
   161  -7.50000   5.00000  -4.75000   0.50000   90.00000   0.00000   0.00100     0  161  162    301
   162  -7.50000   5.00000  -4.25000   0.50000   90.00000   0.00000   0.00100   161  162  163    301
   163  -7.50000   5.00000  -3.75000   0.50000   90.00000   0.00000   0.00100   162  163  164    301
   164  -7.50000   5.00000  -3.25000   0.50000   90.00000   0.00000   0.00100   163  164  165    301
   165  -7.50000   5.00000  -2.75000   0.50000   90.00000   0.00000   0.00100   164  165  166    301
   166  -7.50000   5.00000  -2.25000   0.50000   90.00000   0.00000   0.00100   165  166  167    301
   167  -7.50000   5.00000  -1.75000   0.50000   90.00000   0.00000   0.00100   166  167  168    301
   168  -7.50000   5.00000  -1.25000   0.50000   90.00000   0.00000   0.00100   167  168  169    301
   169  -7.50000   5.00000  -0.75000   0.50000   90.00000   0.00000   0.00100   168  169  170    301
   170  -7.50000   5.00000  -0.25000   0.50000   90.00000   0.00000   0.00100   169  170  171    301
   171  -7.50000   5.00000   0.25000   0.50000   90.00000   0.00000   0.00100   170  171  172    301
   172  -7.50000   5.00000   0.75000   0.50000   90.00000   0.00000   0.00100   171  172  173    301
   173  -7.50000   5.00000   1.25000   0.50000   90.00000   0.00000   0.00100   172  173  174    301
   174  -7.50000   5.00000   1.75000   0.50000   90.00000   0.00000   0.00100   173  174  175    301
   175  -7.50000   5.00000   2.25000   0.50000   90.00000   0.00000   0.00100   174  175  176    301
   176  -7.50000   5.00000   2.75000   0.50000   90.00000   0.00000   0.00100   175  176  177    301
   177  -7.50000   5.00000   3.25000   0.50000   90.00000   0.00000   0.00100   176  177  178    301
   178  -7.50000   5.00000   3.75000   0.50000   90.00000   0.00000   0.00100   177  178  179    301
   179  -7.50000   5.00000   4.25000   0.50000   90.00000   0.00000   0.00100   178  179  180    301
   180  -7.50000   5.00000   4.75000   0.50000   90.00000   0.00000   0.00100   179  180    0    301
   181  -2.50000   5.00000  -4.75000   0.50000   90.00000   0.00000   0.00100     0  181  182    302
   182  -2.50000   5.00000  -4.25000   0.50000   90.00000   0.00000   0.00100   181  182  183    302
   183  -2.50000   5.00000  -3.75000   0.50000   90.00000   0.00000   0.00100   182  183  184    302
   184  -2.50000   5.00000  -3.25000   0.50000   90.00000   0.00000   0.00100   183  184  185    302
   185  -2.50000   5.00000  -2.75000   0.50000   90.00000   0.00000   0.00100   184  185  186    302
   186  -2.50000   5.00000  -2.25000   0.50000   90.00000   0.00000   0.00100   185  186  187    302
   187  -2.50000   5.00000  -1.75000   0.50000   90.00000   0.00000   0.00100   186  187  188    302
   188  -2.50000   5.00000  -1.25000   0.50000   90.00000   0.00000   0.00100   187  188  189    302
   189  -2.50000   5.00000  -0.75000   0.50000   90.00000   0.00000   0.00100   188  189  190    302
   190  -2.50000   5.00000  -0.25000   0.50000   90.00000   0.00000   0.00100   189  190  191    302
   191  -2.50000   5.00000   0.25000   0.50000   90.00000   0.00000   0.00100   190  191  192    302
   192  -2.50000   5.00000   0.75000   0.50000   90.00000   0.00000   0.00100   191  192  193    302
   193  -2.50000   5.00000   1.25000   0.50000   90.00000   0.00000   0.00100   192  193  194    302
   194  -2.50000   5.00000   1.75000   0.50000   90.00000   0.00000   0.00100   193  194  195    302
   195  -2.50000   5.00000   2.25000   0.50000   90.00000   0.00000   0.00100   194  195  196    302
   196  -2.50000   5.00000   2.75000   0.50000   90.00000   0.00000   0.00100   195  196  197    302
   197  -2.50000   5.00000   3.25000   0.50000   90.00000   0.00000   0.00100   196  197  198    302
   198  -2.50000   5.00000   3.75000   0.50000   90.00000   0.00000   0.00100   197  198  199    302
   199  -2.50000   5.00000   4.25000   0.50000   90.00000   0.00000   0.00100   198  199  200    302
   200  -2.50000   5.00000   4.75000   0.50000   90.00000   0.00000   0.00100   199  200    0    302
   201   2.50000   5.00000  -4.75000   0.50000   90.00000   0.00000   0.00100     0  201  202    303
   202   2.50000   5.00000  -4.25000   0.50000   90.00000   0.00000   0.00100   201  202  203    303
   203   2.50000   5.00000  -3.75000   0.50000   90.00000   0.00000   0.00100   202  203  204    303
   204   2.50000   5.00000  -3.25000   0.50000   90.00000   0.00000   0.00100   203  204  205    303
   205   2.50000   5.00000  -2.75000   0.50000   90.00000   0.00000   0.00100   204  205  206    303
   206   2.50000   5.00000  -2.25000   0.50000   90.00000   0.00000   0.00100   205  206  207    303
   207   2.50000   5.00000  -1.75000   0.50000   90.00000   0.00000   0.00100   206  207  208    303
   208   2.50000   5.00000  -1.25000   0.50000   90.00000   0.00000   0.00100   207  208  209    303
   209   2.50000   5.00000  -0.75000   0.50000   90.00000   0.00000   0.00100   208  209  210    303
   210   2.50000   5.00000  -0.25000   0.50000   90.00000   0.00000   0.00100   209  210  211    303
   211   2.50000   5.00000   0.25000   0.50000   90.00000   0.00000   0.00100   210  211  212    303
   212   2.50000   5.00000   0.75000   0.50000   90.00000   0.00000   0.00100   211  212  213    303
   213   2.50000   5.00000   1.25000   0.50000   90.00000   0.00000   0.00100   212  213  214    303
   214   2.50000   5.00000   1.75000   0.50000   90.00000   0.00000   0.00100   213  214  215    303
   215   2.50000   5.00000   2.25000   0.50000   90.00000   0.00000   0.00100   214  215  216    303
   216   2.50000   5.00000   2.75000   0.50000   90.00000   0.00000   0.00100   215  216  217    303
   217   2.50000   5.00000   3.25000   0.50000   90.00000   0.00000   0.00100   216  217  218    303
   218   2.50000   5.00000   3.75000   0.50000   90.00000   0.00000   0.00100   217  218  219    303
   219   2.50000   5.00000   4.25000   0.50000   90.00000   0.00000   0.00100   218  219  220    303
   220   2.50000   5.00000   4.75000   0.50000   90.00000   0.00000   0.00100   219  220    0    303
   221   7.50000   5.00000  -4.75000   0.50000   90.00000   0.00000   0.00100     0  221  222    304
   222   7.50000   5.00000  -4.25000   0.50000   90.00000   0.00000   0.00100   221  222  223    304
   223   7.50000   5.00000  -3.75000   0.50000   90.00000   0.00000   0.00100   222  223  224    304
   224   7.50000   5.00000  -3.25000   0.50000   90.00000   0.00000   0.00100   223  224  225    304
   225   7.50000   5.00000  -2.75000   0.50000   90.00000   0.00000   0.00100   224  225  226    304
   226   7.50000   5.00000  -2.25000   0.50000   90.00000   0.00000   0.00100   225  226  227    304
   227   7.50000   5.00000  -1.75000   0.50000   90.00000   0.00000   0.00100   226  227  228    304
   228   7.50000   5.00000  -1.25000   0.50000   90.00000   0.00000   0.00100   227  228  229    304
   229   7.50000   5.00000  -0.75000   0.50000   90.00000   0.00000   0.00100   228  229  230    304
   230   7.50000   5.00000  -0.25000   0.50000   90.00000   0.00000   0.00100   229  230  231    304
   231   7.50000   5.00000   0.25000   0.50000   90.00000   0.00000   0.00100   230  231  232    304
   232   7.50000   5.00000   0.75000   0.50000   90.00000   0.00000   0.00100   231  232  233    304
   233   7.50000   5.00000   1.25000   0.50000   90.00000   0.00000   0.00100   232  233  234    304
   234   7.50000   5.00000   1.75000   0.50000   90.00000   0.00000   0.00100   233  234  235    304
   235   7.50000   5.00000   2.25000   0.50000   90.00000   0.00000   0.00100   234  235  236    304
   236   7.50000   5.00000   2.75000   0.50000   90.00000   0.00000   0.00100   235  236  237    304
   237   7.50000   5.00000   3.25000   0.50000   90.00000   0.00000   0.00100   236  237  238    304
   238   7.50000   5.00000   3.75000   0.50000   90.00000   0.00000   0.00100   237  238  239    304
   239   7.50000   5.00000   4.25000   0.50000   90.00000   0.00000   0.00100   238  239  240    304
   240   7.50000   5.00000   4.75000   0.50000   90.00000   0.00000   0.00100   239  240    0    304






 ***** DATA CARD NO.  1   GN  -1     0     0     0  1.00000E+01  1.00000E-02  0.00000E+00  0.00000E+00  0.00000E+00  0.00000E+00
 ***** DATA CARD NO.  2   FR   0     0     0     0  1.50000E+02  0.00000E+00  0.00000E+00  0.00000E+00  0.00000E+00  0.00000E+00
 ***** DATA CARD NO.  3   EX   0   101    10     0  1.00000E-09  0.00000E+00  0.00000E+00  0.00000E+00  0.00000E+00  0.00000E+00
 ***** DATA CARD NO.  4   EX   0   102    10     0  1.00000E-09  0.00000E+00  0.00000E+00  0.00000E+00  0.00000E+00  0.00000E+00
 ***** DATA CARD NO.  5   EX   0   103    10     0  1.00000E-09  0.00000E+00  0.00000E+00  0.00000E+00  0.00000E+00  0.00000E+00
 ***** DATA CARD NO.  6   EX   0   104    10     0  1.00000E-09  0.00000E+00  0.00000E+00  0.00000E+00  0.00000E+00  0.00000E+00
 ***** DATA CARD NO.  7   EX   0   201    10     0 -8.41550E-04 -3.99870E-03  0.00000E+00  0.00000E+00  0.00000E+00  0.00000E+00
 ***** DATA CARD NO.  8   EX   0   202    10     0  1.00000E-09  0.00000E+00  0.00000E+00  0.00000E+00  0.00000E+00  0.00000E+00
 ***** DATA CARD NO.  9   EX   0   203    10     0  1.00000E-09  0.00000E+00  0.00000E+00  0.00000E+00  0.00000E+00  0.00000E+00
 ***** DATA CARD NO. 10   EX   0   204    10     0  1.00000E-09  0.00000E+00  0.00000E+00  0.00000E+00  0.00000E+00  0.00000E+00
 ***** DATA CARD NO. 11   EX   0   301    10     0  1.00000E-09  0.00000E+00  0.00000E+00  0.00000E+00  0.00000E+00  0.00000E+00
 ***** DATA CARD NO. 12   EX   0   302    10     0  1.00000E-09  0.00000E+00  0.00000E+00  0.00000E+00  0.00000E+00  0.00000E+00
 ***** DATA CARD NO. 13   EX   0   303    10     0  1.00000E-09  0.00000E+00  0.00000E+00  0.00000E+00  0.00000E+00  0.00000E+00
 ***** DATA CARD NO. 14   EX   0   304    10     0  1.00000E-09  0.00000E+00  0.00000E+00  0.00000E+00  0.00000E+00  0.00000E+00
 ***** DATA CARD NO. 15   RP   0    19    72  1010  0.00000E+00  0.00000E+00  5.00000E+00  5.00000E+00  0.00000E+00  0.00000E+00




                                 - - - - - - FREQUENCY - - - - - -

                                    FREQUENCY= 1.5000E+02 MHZ
                                    WAVELENGTH= 1.9987E+00 METERS




                    APPROXIMATE INTEGRATION EMPLOYED FOR SEGMENTS MORE THAN   1.000 WAVELENGTHS APART



                               - - - STRUCTURE IMPEDANCE LOADING - - -

                                   THIS STRUCTURE IS NOT LOADED



                                  - - - ANTENNA ENVIRONMENT - - -

                                            FREE SPACE



                                - - - MATRIX TIMING - - -

                        FILL=    0.031 SEC.,  FACTOR=    0.031 SEC.



                                          - - - ANTENNA INPUT PARAMETERS - - -

   TAG   SEG.    VOLTAGE (VOLTS)         CURRENT (AMPS)         IMPEDANCE (OHMS)        ADMITTANCE (MHOS)      POWER
   NO.   NO.    REAL        IMAG.       REAL        IMAG.       REAL        IMAG.       REAL        IMAG.     (WATTS)
   101    10 1.00000E-09 0.00000E+00 1.31388E-07 7.36181E-08 5.79250E-03-3.24560E-03 1.31388E+02 7.36181E+01 6.56940E-17
   102    30 1.00000E-09 0.00000E+00 1.07785E-07-3.83271E-07 6.79970E-04 2.41790E-03 1.07785E+02-3.83271E+02 5.38925E-17
   103    50 1.00000E-09 0.00000E+00-1.02589E-07 4.49718E-08-8.17641E-03-3.58429E-03-1.02589E+02 4.49718E+01-5.12944E-17
   104    70 1.00000E-09 0.00000E+00-1.44873E-07 3.25139E-08-6.57157E-03-1.47486E-03-1.44873E+02 3.25139E+01-7.24367E-17
   201    90-8.41550E-04-3.99870E-03-7.98832E-06-1.06894E-05 2.77781E+02 1.28862E+02 2.96243E-03-1.37427E-03 2.47331E-08
   202   110 1.00000E-09 0.00000E+00 1.23867E-07 9.05317E-08 5.26220E-03-3.84604E-03 1.23867E+02 9.05317E+01 6.19333E-17
   203   130 1.00000E-09 0.00000E+00 4.55766E-09-1.23829E-07 2.96833E-04 8.06476E-03 4.55766E+00-1.23829E+02 2.27883E-18
   204   150 1.00000E-09 0.00000E+00 9.98182E-08-1.66169E-07 2.65645E-03 4.42224E-03 9.98182E+01-1.66169E+02 4.99091E-17
   301   170 1.00000E-09 0.00000E+00 1.31388E-07 7.36181E-08 5.79250E-03-3.24560E-03 1.31388E+02 7.36181E+01 6.56940E-17
   302   190 1.00000E-09 0.00000E+00 1.07785E-07-3.83271E-07 6.79970E-04 2.41790E-03 1.07785E+02-3.83271E+02 5.38925E-17
   303   210 1.00000E-09 0.00000E+00-1.02589E-07 4.49718E-08-8.17641E-03-3.58429E-03-1.02589E+02 4.49718E+01-5.12944E-17
   304   230 1.00000E-09 0.00000E+00-1.44873E-07 3.25139E-08-6.57157E-03-1.47486E-03-1.44873E+02 3.25139E+01-7.24367E-17



                             - - - CURRENTS AND LOCATION - - -

                                 DISTANCES IN WAVELENGTHS


  SEG.  TAG    COORD. OF SEG. CENTER     SEG.            - - - CURRENT (AMPS) - - -
  NO.   NO.     X        Y        Z      LENGTH     REAL        IMAG.       MAG.        PHASE
     1  101  -3.7525  -2.5017  -2.3766  0.25017   1.5013E-07  1.2220E-07  1.9358E-07   39.145
     2  101  -3.7525  -2.5017  -2.1264  0.25017   2.1407E-08 -9.5203E-09  2.3429E-08  -23.976
     3  101  -3.7525  -2.5017  -1.8763  0.25017  -2.7506E-07 -3.1963E-07  4.2169E-07 -130.714
     4  101  -3.7525  -2.5017  -1.6261  0.25017  -9.3202E-08 -1.6147E-07  1.8644E-07 -119.993
     5  101  -3.7525  -2.5017  -1.3759  0.25017   2.2071E-07  3.0193E-07  3.7400E-07   53.834
     6  101  -3.7525  -2.5017  -1.1258  0.25017  -4.9013E-09  3.4810E-07  3.4814E-07   90.807
     7  101  -3.7525  -2.5017  -0.8756  0.25017  -3.6869E-07 -2.8342E-08  3.6978E-07 -175.604
     8  101  -3.7525  -2.5017  -0.6254  0.25017  -1.1244E-07 -1.6922E-07  2.0317E-07 -123.601
     9  101  -3.7525  -2.5017  -0.3753  0.25017   3.4799E-07  3.4802E-08  3.4972E-07    5.711
    10  101  -3.7525  -2.5017  -0.1251  0.25017   1.3139E-07  7.3618E-08  1.5061E-07   29.262
    11  101  -3.7525  -2.5017   0.1251  0.25017  -4.2066E-07 -1.0620E-07  4.3386E-07 -165.831
    12  101  -3.7525  -2.5017   0.3753  0.25017  -3.4099E-07 -5.2659E-08  3.4503E-07 -171.221
    13  101  -3.7525  -2.5017   0.6254  0.25017   1.7942E-07  1.8127E-07  2.5504E-07   45.294
    14  101  -3.7525  -2.5017   0.8756  0.25017   2.0881E-07  8.4013E-08  2.2508E-07   21.917
    15  101  -3.7525  -2.5017   1.1258  0.25017  -1.6661E-07 -2.3636E-07  2.8918E-07 -125.181
    16  101  -3.7525  -2.5017   1.3759  0.25017  -1.1207E-07 -1.4620E-07  1.8421E-07 -127.473
    17  101  -3.7525  -2.5017   1.6261  0.25017   2.9745E-07  2.8031E-07  4.0872E-07   43.301
    18  101  -3.7525  -2.5017   1.8763  0.25017   2.7060E-07  2.9003E-07  3.9666E-07   46.985
    19  101  -3.7525  -2.5017   2.1264  0.25017  -1.4143E-07 -1.5621E-07  2.1072E-07 -132.158
    20  101  -3.7525  -2.5017   2.3766  0.25017  -1.7673E-07 -2.2960E-07  2.8974E-07 -127.588
    21  102  -1.2508  -2.5017  -2.3766  0.25017   1.7833E-07 -4.7314E-07  5.0563E-07  -69.348
    22  102  -1.2508  -2.5017  -2.1264  0.25017   1.7432E-07 -5.2056E-07  5.4897E-07  -71.485
    23  102  -1.2508  -2.5017  -1.8763  0.25017  -1.3939E-07  3.7334E-07  3.9851E-07  110.474
    24  102  -1.2508  -2.5017  -1.6261  0.25017  -1.9973E-07  5.1586E-07  5.5317E-07  111.165
    25  102  -1.2508  -2.5017  -1.3759  0.25017   1.2684E-09 -2.7704E-07  2.7704E-07  -89.738
    26  102  -1.2508  -2.5017  -1.1258  0.25017   6.2169E-10 -3.9542E-07  3.9542E-07  -89.910
    27  102  -1.2508  -2.5017  -0.8756  0.25017  -1.7275E-07  3.7957E-07  4.1703E-07  114.471
    28  102  -1.2508  -2.5017  -0.6254  0.25017  -8.5002E-08  5.0537E-07  5.1247E-07   99.548
    29  102  -1.2508  -2.5017  -0.3753  0.25017   1.7401E-07 -2.4079E-07  2.9708E-07  -54.146
    30  102  -1.2508  -2.5017  -0.1251  0.25017   1.0778E-07 -3.8327E-07  3.9814E-07  -74.293
    31  102  -1.2508  -2.5017   0.1251  0.25017  -2.1734E-07  2.7006E-07  3.4666E-07  128.826
    32  102  -1.2508  -2.5017   0.3753  0.25017  -2.5517E-07  3.0491E-07  3.9760E-07  129.925
    33  102  -1.2508  -2.5017   0.6254  0.25017   2.0094E-08 -3.7725E-07  3.7779E-07  -86.951
    34  102  -1.2508  -2.5017   0.8756  0.25017   1.1384E-07 -3.4095E-07  3.5945E-07  -71.536
    35  102  -1.2508  -2.5017   1.1258  0.25017  -3.1537E-08  4.3592E-07  4.3706E-07   94.138
    36  102  -1.2508  -2.5017   1.3759  0.25017   1.5259E-09  4.3175E-07  4.3175E-07   89.798
    37  102  -1.2508  -2.5017   1.6261  0.25017   2.0977E-07 -3.7338E-07  4.2827E-07  -60.672
    38  102  -1.2508  -2.5017   1.8763  0.25017   1.6013E-07 -3.8389E-07  4.1595E-07  -67.357
    39  102  -1.2508  -2.5017   2.1264  0.25017  -1.1432E-07  4.5192E-07  4.6616E-07  104.196
    40  102  -1.2508  -2.5017   2.3766  0.25017  -1.2700E-07  4.6522E-07  4.8225E-07  105.269
    41  103   1.2508  -2.5017  -2.3766  0.25017  -1.2224E-07  4.6484E-08  1.3078E-07  159.180
    42  103   1.2508  -2.5017  -2.1264  0.25017  -1.4794E-07  2.4340E-08  1.4993E-07  170.657
    43  103   1.2508  -2.5017  -1.8763  0.25017   3.7654E-08 -6.8996E-08  7.8602E-08  -61.377
    44  103   1.2508  -2.5017  -1.6261  0.25017   5.6596E-08 -5.4976E-08  7.8902E-08  -44.168
    45  103   1.2508  -2.5017  -1.3759  0.25017  -1.0342E-07  5.0954E-08  1.1529E-07  153.771
    46  103   1.2508  -2.5017  -1.1258  0.25017  -1.0375E-07  9.2317E-08  1.3887E-07  138.337
    47  103   1.2508  -2.5017  -0.8756  0.25017   4.9604E-08  6.4358E-08  8.1256E-08   52.377
    48  103   1.2508  -2.5017  -0.6254  0.25017   2.9537E-08  7.9620E-08  8.4922E-08   69.646
    49  103   1.2508  -2.5017  -0.3753  0.25017  -1.3481E-07  1.1066E-07  1.7441E-07  140.619
    50  103   1.2508  -2.5017  -0.1251  0.25017  -1.0259E-07  4.4972E-08  1.1201E-07  156.329
    51  103   1.2508  -2.5017   0.1251  0.25017   9.2632E-08 -6.6515E-08  1.1404E-07  -35.681
    52  103   1.2508  -2.5017   0.3753  0.25017   9.2274E-08 -8.3747E-08  1.2461E-07  -42.227
    53  103   1.2508  -2.5017   0.6254  0.25017  -8.7264E-08 -3.2634E-08  9.3167E-08 -159.496
    54  103   1.2508  -2.5017   0.8756  0.25017  -9.1097E-08 -2.9015E-08  9.5606E-08 -162.333
    55  103   1.2508  -2.5017   1.1258  0.25017   7.7068E-08 -3.3407E-08  8.3997E-08  -23.436
    56  103   1.2508  -2.5017   1.3759  0.25017   8.4623E-08  5.3605E-08  1.0017E-07   32.352
    57  103   1.2508  -2.5017   1.6261  0.25017  -4.6125E-08  1.4446E-07  1.5164E-07  107.709
    58  103   1.2508  -2.5017   1.8763  0.25017   1.3627E-08  8.9937E-08  9.0964E-08   81.384
    59  103   1.2508  -2.5017   2.1264  0.25017   2.0362E-07 -3.5053E-08  2.0661E-07   -9.768
    60  103   1.2508  -2.5017   2.3766  0.25017   1.4127E-07 -4.3953E-08  1.4795E-07  -17.282
    61  104   3.7525  -2.5017  -2.3766  0.25017  -1.9029E-07  3.4068E-08  1.9331E-07  169.850
    62  104   3.7525  -2.5017  -2.1264  0.25017  -1.8354E-07  3.3878E-08  1.8664E-07  169.542
    63  104   3.7525  -2.5017  -1.8763  0.25017   1.8149E-07 -2.4284E-08  1.8311E-07   -7.621
    64  104   3.7525  -2.5017  -1.6261  0.25017   2.0298E-07 -1.0155E-08  2.0324E-07   -2.864
    65  104   3.7525  -2.5017  -1.3759  0.25017  -1.2140E-07  6.0627E-08  1.3569E-07  153.462
    66  104   3.7525  -2.5017  -1.1258  0.25017  -1.1597E-07  6.3061E-08  1.3201E-07  151.465
    67  104   3.7525  -2.5017  -0.8756  0.25017   2.1940E-07  1.6988E-08  2.2005E-07    4.428
    68  104   3.7525  -2.5017  -0.6254  0.25017   2.1467E-07  3.4620E-08  2.1744E-07    9.161
    69  104   3.7525  -2.5017  -0.3753  0.25017  -1.2961E-07  7.7578E-08  1.5105E-07  149.097
    70  104   3.7525  -2.5017  -0.1251  0.25017  -1.4487E-07  3.2514E-08  1.4848E-07  167.351
    71  104   3.7525  -2.5017   0.1251  0.25017   1.7047E-07 -4.7667E-08  1.7701E-07  -15.622
    72  104   3.7525  -2.5017   0.3753  0.25017   1.5342E-07 -3.9253E-08  1.5837E-07  -14.351
    73  104   3.7525  -2.5017   0.6254  0.25017  -1.8991E-07  8.1759E-09  1.9009E-07  177.535
    74  104   3.7525  -2.5017   0.8756  0.25017  -1.8813E-07 -1.9856E-08  1.8917E-07 -173.975
    75  104   3.7525  -2.5017   1.1258  0.25017   1.5641E-07 -6.2541E-08  1.6845E-07  -21.794
    76  104   3.7525  -2.5017   1.3759  0.25017   1.6900E-07 -1.2427E-08  1.6945E-07   -4.206
    77  104   3.7525  -2.5017   1.6261  0.25017  -1.5109E-07  4.5108E-08  1.5768E-07  163.377
    78  104   3.7525  -2.5017   1.8763  0.25017  -1.2854E-07 -1.1601E-08  1.2906E-07 -174.843
    79  104   3.7525  -2.5017   2.1264  0.25017   2.2776E-07 -8.7122E-08  2.4386E-07  -20.932
    80  104   3.7525  -2.5017   2.3766  0.25017   2.0879E-07 -4.4124E-08  2.1340E-07  -11.933
    81  201  -3.7525   0.0000  -2.3766  0.25017  -9.6320E-06 -9.6835E-06  1.3658E-05 -134.847
    82  201  -3.7525   0.0000  -2.1264  0.25017  -7.1819E-06 -9.6468E-06  1.2027E-05 -126.667
    83  201  -3.7525   0.0000  -1.8763  0.25017   1.0341E-05  9.0259E-06  1.3726E-05   41.117
    84  201  -3.7525   0.0000  -1.6261  0.25017   6.7079E-06  9.6722E-06  1.1771E-05   55.258
    85  201  -3.7525   0.0000  -1.3759  0.25017  -1.0600E-05 -8.7750E-06  1.3761E-05 -140.381
    86  201  -3.7525   0.0000  -1.1258  0.25017  -6.4552E-06 -9.7841E-06  1.1722E-05 -123.415
    87  201  -3.7525   0.0000  -0.8756  0.25017   1.0814E-05  8.6786E-06  1.3866E-05   38.747
    88  201  -3.7525   0.0000  -0.6254  0.25017   6.1721E-06  1.0058E-05  1.1801E-05   58.465
    89  201  -3.7525   0.0000  -0.3753  0.25017  -1.1240E-05 -8.6800E-06  1.4201E-05 -142.323
    90  201  -3.7525   0.0000  -0.1251  0.25017  -7.9883E-06 -1.0689E-05  1.3344E-05 -126.771
    91  201  -3.7525   0.0000   0.1251  0.25017   1.4758E-06  9.2057E-06  9.3232E-06   80.892
    92  201  -3.7525   0.0000   0.3753  0.25017   5.8859E-06  1.0066E-05  1.1660E-05   59.683
    93  201  -3.7525   0.0000   0.6254  0.25017  -1.8729E-06 -9.3806E-06  9.5657E-06 -101.291
    94  201  -3.7525   0.0000   0.8756  0.25017  -5.7813E-06 -9.9652E-06  1.1521E-05 -120.120
    95  201  -3.7525   0.0000   1.1258  0.25017   2.1580E-06  9.4143E-06  9.6585E-06   77.089
    96  201  -3.7525   0.0000   1.3759  0.25017   5.6472E-06  9.9933E-06  1.1479E-05   60.529
    97  201  -3.7525   0.0000   1.6261  0.25017  -2.4205E-06 -9.4254E-06  9.7313E-06 -104.403
    98  201  -3.7525   0.0000   1.8763  0.25017  -5.4144E-06 -1.0061E-05  1.1425E-05 -118.288
    99  201  -3.7525   0.0000   2.1264  0.25017   2.8342E-06  9.6060E-06  1.0015E-05   73.561
   100  201  -3.7525   0.0000   2.3766  0.25017   4.7262E-06  1.0367E-05  1.1394E-05   65.493
   101  202  -1.2508   0.0000  -2.3766  0.25017   1.2888E-07  1.3714E-07  1.8820E-07   46.779
   102  202  -1.2508   0.0000  -2.1264  0.25017   6.5544E-09  2.5479E-09  7.0322E-09   21.242
   103  202  -1.2508   0.0000  -1.8763  0.25017  -2.5096E-07 -3.3038E-07  4.1489E-07 -127.221
   104  202  -1.2508   0.0000  -1.6261  0.25017  -7.8283E-08 -1.6318E-07  1.8099E-07 -115.629
   105  202  -1.2508   0.0000  -1.3759  0.25017   1.9224E-07  3.3015E-07  3.8204E-07   59.788
   106  202  -1.2508   0.0000  -1.1258  0.25017  -3.3072E-08  3.7574E-07  3.7719E-07   95.030
   107  202  -1.2508   0.0000  -0.8756  0.25017  -3.6036E-07 -2.4711E-08  3.6121E-07 -176.077
   108  202  -1.2508   0.0000  -0.6254  0.25017  -1.0144E-07 -1.6416E-07  1.9297E-07 -121.713
   109  202  -1.2508   0.0000  -0.3753  0.25017   3.3371E-07  6.0218E-08  3.3910E-07   10.229
   110  202  -1.2508   0.0000  -0.1251  0.25017   1.2387E-07  9.0532E-08  1.5342E-07   36.162
   111  202  -1.2508   0.0000   0.1251  0.25017  -4.0300E-07 -1.1969E-07  4.2040E-07 -163.459
   112  202  -1.2508   0.0000   0.3753  0.25017  -3.3713E-07 -6.9047E-08  3.4413E-07 -168.426
   113  202  -1.2508   0.0000   0.6254  0.25017   1.5351E-07  1.8580E-07  2.4101E-07   50.435
   114  202  -1.2508   0.0000   0.8756  0.25017   2.0063E-07  8.6559E-08  2.1851E-07   23.337
   115  202  -1.2508   0.0000   1.1258  0.25017  -1.3619E-07 -2.5458E-07  2.8872E-07 -118.145
   116  202  -1.2508   0.0000   1.3759  0.25017  -9.3650E-08 -1.5797E-07  1.8364E-07 -120.662
   117  202  -1.2508   0.0000   1.6261  0.25017   2.7780E-07  2.9681E-07  4.0654E-07   46.895
   118  202  -1.2508   0.0000   1.8763  0.25017   2.6388E-07  3.0741E-07  4.0513E-07   49.357
   119  202  -1.2508   0.0000   2.1264  0.25017  -1.0536E-07 -1.6424E-07  1.9513E-07 -122.679
   120  202  -1.2508   0.0000   2.3766  0.25017  -1.5078E-07 -2.4074E-07  2.8406E-07 -122.059
   121  203   1.2508   0.0000  -2.3766  0.25017  -8.1420E-09 -1.7296E-07  1.7315E-07  -92.695
   122  203   1.2508   0.0000  -2.1264  0.25017   2.5147E-08 -1.5579E-07  1.5781E-07  -80.831
   123  203   1.2508   0.0000  -1.8763  0.25017   9.2189E-08  1.7433E-07  1.9720E-07   62.129
   124  203   1.2508   0.0000  -1.6261  0.25017   7.8315E-08  1.9676E-07  2.1178E-07   68.297
   125  203   1.2508   0.0000  -1.3759  0.25017  -2.1148E-09 -9.8547E-08  9.8569E-08  -91.229
   126  203   1.2508   0.0000  -1.1258  0.25017  -1.1370E-08 -1.3875E-07  1.3921E-07  -94.685
   127  203   1.2508   0.0000  -0.8756  0.25017   6.0417E-08  1.0324E-07  1.1962E-07   59.663
   128  203   1.2508   0.0000  -0.6254  0.25017   8.2138E-08  9.9018E-08  1.2865E-07   50.323
   129  203   1.2508   0.0000  -0.3753  0.25017   2.8543E-08 -1.5207E-07  1.5472E-07  -79.369
   130  203   1.2508   0.0000  -0.1251  0.25017   4.5577E-09 -1.2383E-07  1.2391E-07  -87.892
   131  203   1.2508   0.0000   0.1251  0.25017   2.4903E-08  1.6814E-07  1.6997E-07   81.575
   132  203   1.2508   0.0000   0.3753  0.25017   6.5793E-09  1.7989E-07  1.8001E-07   87.905
   133  203   1.2508   0.0000   0.6254  0.25017  -2.9924E-08 -8.9496E-08  9.4366E-08 -108.488
   134  203   1.2508   0.0000   0.8756  0.25017   8.6264E-09 -1.1107E-07  1.1140E-07  -85.559
   135  203   1.2508   0.0000   1.1258  0.25017   7.5041E-08  1.0765E-07  1.3122E-07   55.120
   136  203   1.2508   0.0000   1.3759  0.25017   3.9638E-08  4.8786E-08  6.2859E-08   50.907
   137  203   1.2508   0.0000   1.6261  0.25017  -6.3329E-08 -2.4022E-07  2.4843E-07 -104.768
   138  203   1.2508   0.0000   1.8763  0.25017  -8.4559E-08 -1.9231E-07  2.1008E-07 -113.735
   139  203   1.2508   0.0000   2.1264  0.25017  -2.0456E-08  1.5438E-07  1.5573E-07   97.548
   140  203   1.2508   0.0000   2.3766  0.25017   8.2838E-09  1.7201E-07  1.7221E-07   87.243
   141  204   3.7525   0.0000  -2.3766  0.25017   1.1887E-07 -2.0115E-07  2.3364E-07  -59.419
   142  204   3.7525   0.0000  -2.1264  0.25017   1.1752E-07 -2.1016E-07  2.4079E-07  -60.787
   143  204   3.7525   0.0000  -1.8763  0.25017  -1.0764E-07  1.6164E-07  1.9420E-07  123.662
   144  204   3.7525   0.0000  -1.6261  0.25017  -1.2869E-07  1.8896E-07  2.2861E-07  124.256
   145  204   3.7525   0.0000  -1.3759  0.25017   6.3556E-08 -1.4162E-07  1.5522E-07  -65.830
   146  204   3.7525   0.0000  -1.1258  0.25017   5.1136E-08 -1.3869E-07  1.4782E-07  -69.761
   147  204   3.7525   0.0000  -0.8756  0.25017  -1.7665E-07  1.9292E-07  2.6158E-07  132.479
   148  204   3.7525   0.0000  -0.6254  0.25017  -1.8797E-07  1.6975E-07  2.5327E-07  137.917
   149  204   3.7525   0.0000  -0.3753  0.25017   4.8531E-08 -1.8202E-07  1.8838E-07  -75.071
   150  204   3.7525   0.0000  -0.1251  0.25017   9.9818E-08 -1.6617E-07  1.9384E-07  -59.007
   151  204   3.7525   0.0000   0.1251  0.25017  -8.6009E-08  1.8840E-07  2.0711E-07  114.537
   152  204   3.7525   0.0000   0.3753  0.25017  -8.8853E-08  1.7680E-07  1.9787E-07  116.682
   153  204   3.7525   0.0000   0.6254  0.25017   1.4054E-07 -1.7867E-07  2.2732E-07  -51.811
   154  204   3.7525   0.0000   0.8756  0.25017   1.7015E-07 -1.7713E-07  2.4561E-07  -46.153
   155  204   3.7525   0.0000   1.1258  0.25017  -6.6382E-08  1.6111E-07  1.7425E-07  112.394
   156  204   3.7525   0.0000   1.3759  0.25017  -1.3195E-07  1.5013E-07  1.9987E-07  131.312
   157  204   3.7525   0.0000   1.6261  0.25017   6.7466E-08 -1.6802E-07  1.8106E-07  -68.123
   158  204   3.7525   0.0000   1.8763  0.25017   1.1322E-07 -1.0297E-07  1.5304E-07  -42.286
   159  204   3.7525   0.0000   2.1264  0.25017  -9.0199E-08  2.7427E-07  2.8872E-07  108.205
   160  204   3.7525   0.0000   2.3766  0.25017  -1.1918E-07  2.2406E-07  2.5378E-07  118.009
   161  301  -3.7525   2.5017  -2.3766  0.25017   1.5013E-07  1.2220E-07  1.9358E-07   39.145
   162  301  -3.7525   2.5017  -2.1264  0.25017   2.1407E-08 -9.5203E-09  2.3429E-08  -23.976
   163  301  -3.7525   2.5017  -1.8763  0.25017  -2.7506E-07 -3.1963E-07  4.2169E-07 -130.714
   164  301  -3.7525   2.5017  -1.6261  0.25017  -9.3202E-08 -1.6147E-07  1.8644E-07 -119.993
   165  301  -3.7525   2.5017  -1.3759  0.25017   2.2071E-07  3.0193E-07  3.7400E-07   53.834
   166  301  -3.7525   2.5017  -1.1258  0.25017  -4.9013E-09  3.4810E-07  3.4814E-07   90.807
   167  301  -3.7525   2.5017  -0.8756  0.25017  -3.6869E-07 -2.8342E-08  3.6978E-07 -175.604
   168  301  -3.7525   2.5017  -0.6254  0.25017  -1.1244E-07 -1.6922E-07  2.0317E-07 -123.601
   169  301  -3.7525   2.5017  -0.3753  0.25017   3.4799E-07  3.4802E-08  3.4972E-07    5.711
   170  301  -3.7525   2.5017  -0.1251  0.25017   1.3139E-07  7.3618E-08  1.5061E-07   29.262
   171  301  -3.7525   2.5017   0.1251  0.25017  -4.2066E-07 -1.0620E-07  4.3386E-07 -165.831
   172  301  -3.7525   2.5017   0.3753  0.25017  -3.4099E-07 -5.2659E-08  3.4503E-07 -171.221
   173  301  -3.7525   2.5017   0.6254  0.25017   1.7942E-07  1.8127E-07  2.5504E-07   45.294
   174  301  -3.7525   2.5017   0.8756  0.25017   2.0881E-07  8.4013E-08  2.2508E-07   21.917
   175  301  -3.7525   2.5017   1.1258  0.25017  -1.6661E-07 -2.3636E-07  2.8918E-07 -125.181
   176  301  -3.7525   2.5017   1.3759  0.25017  -1.1207E-07 -1.4620E-07  1.8421E-07 -127.473
   177  301  -3.7525   2.5017   1.6261  0.25017   2.9745E-07  2.8031E-07  4.0872E-07   43.301
   178  301  -3.7525   2.5017   1.8763  0.25017   2.7060E-07  2.9003E-07  3.9666E-07   46.985
   179  301  -3.7525   2.5017   2.1264  0.25017  -1.4143E-07 -1.5621E-07  2.1072E-07 -132.158
   180  301  -3.7525   2.5017   2.3766  0.25017  -1.7673E-07 -2.2960E-07  2.8974E-07 -127.588
   181  302  -1.2508   2.5017  -2.3766  0.25017   1.7833E-07 -4.7314E-07  5.0563E-07  -69.348
   182  302  -1.2508   2.5017  -2.1264  0.25017   1.7432E-07 -5.2056E-07  5.4897E-07  -71.485
   183  302  -1.2508   2.5017  -1.8763  0.25017  -1.3939E-07  3.7334E-07  3.9851E-07  110.474
   184  302  -1.2508   2.5017  -1.6261  0.25017  -1.9973E-07  5.1586E-07  5.5317E-07  111.165
   185  302  -1.2508   2.5017  -1.3759  0.25017   1.2684E-09 -2.7704E-07  2.7704E-07  -89.738
   186  302  -1.2508   2.5017  -1.1258  0.25017   6.2169E-10 -3.9542E-07  3.9542E-07  -89.910
   187  302  -1.2508   2.5017  -0.8756  0.25017  -1.7275E-07  3.7957E-07  4.1703E-07  114.471
   188  302  -1.2508   2.5017  -0.6254  0.25017  -8.5002E-08  5.0537E-07  5.1247E-07   99.548
   189  302  -1.2508   2.5017  -0.3753  0.25017   1.7401E-07 -2.4079E-07  2.9708E-07  -54.146
   190  302  -1.2508   2.5017  -0.1251  0.25017   1.0778E-07 -3.8327E-07  3.9814E-07  -74.293
   191  302  -1.2508   2.5017   0.1251  0.25017  -2.1734E-07  2.7006E-07  3.4666E-07  128.826
   192  302  -1.2508   2.5017   0.3753  0.25017  -2.5517E-07  3.0491E-07  3.9760E-07  129.925
   193  302  -1.2508   2.5017   0.6254  0.25017   2.0094E-08 -3.7725E-07  3.7779E-07  -86.951
   194  302  -1.2508   2.5017   0.8756  0.25017   1.1384E-07 -3.4095E-07  3.5945E-07  -71.536
   195  302  -1.2508   2.5017   1.1258  0.25017  -3.1537E-08  4.3592E-07  4.3706E-07   94.138
   196  302  -1.2508   2.5017   1.3759  0.25017   1.5259E-09  4.3175E-07  4.3175E-07   89.798
   197  302  -1.2508   2.5017   1.6261  0.25017   2.0977E-07 -3.7338E-07  4.2827E-07  -60.672
   198  302  -1.2508   2.5017   1.8763  0.25017   1.6013E-07 -3.8389E-07  4.1595E-07  -67.357
   199  302  -1.2508   2.5017   2.1264  0.25017  -1.1432E-07  4.5192E-07  4.6616E-07  104.196
   200  302  -1.2508   2.5017   2.3766  0.25017  -1.2700E-07  4.6522E-07  4.8225E-07  105.269
   201  303   1.2508   2.5017  -2.3766  0.25017  -1.2224E-07  4.6484E-08  1.3078E-07  159.180
   202  303   1.2508   2.5017  -2.1264  0.25017  -1.4794E-07  2.4340E-08  1.4993E-07  170.657
   203  303   1.2508   2.5017  -1.8763  0.25017   3.7654E-08 -6.8996E-08  7.8602E-08  -61.377
   204  303   1.2508   2.5017  -1.6261  0.25017   5.6596E-08 -5.4976E-08  7.8902E-08  -44.168
   205  303   1.2508   2.5017  -1.3759  0.25017  -1.0342E-07  5.0954E-08  1.1529E-07  153.771
   206  303   1.2508   2.5017  -1.1258  0.25017  -1.0375E-07  9.2317E-08  1.3887E-07  138.337
   207  303   1.2508   2.5017  -0.8756  0.25017   4.9604E-08  6.4358E-08  8.1256E-08   52.377
   208  303   1.2508   2.5017  -0.6254  0.25017   2.9537E-08  7.9620E-08  8.4922E-08   69.646
   209  303   1.2508   2.5017  -0.3753  0.25017  -1.3481E-07  1.1066E-07  1.7441E-07  140.619
   210  303   1.2508   2.5017  -0.1251  0.25017  -1.0259E-07  4.4972E-08  1.1201E-07  156.329
   211  303   1.2508   2.5017   0.1251  0.25017   9.2632E-08 -6.6515E-08  1.1404E-07  -35.681
   212  303   1.2508   2.5017   0.3753  0.25017   9.2274E-08 -8.3747E-08  1.2461E-07  -42.227
   213  303   1.2508   2.5017   0.6254  0.25017  -8.7264E-08 -3.2634E-08  9.3167E-08 -159.496
   214  303   1.2508   2.5017   0.8756  0.25017  -9.1097E-08 -2.9015E-08  9.5606E-08 -162.333
   215  303   1.2508   2.5017   1.1258  0.25017   7.7068E-08 -3.3407E-08  8.3997E-08  -23.436
   216  303   1.2508   2.5017   1.3759  0.25017   8.4623E-08  5.3605E-08  1.0017E-07   32.352
   217  303   1.2508   2.5017   1.6261  0.25017  -4.6125E-08  1.4446E-07  1.5164E-07  107.709
   218  303   1.2508   2.5017   1.8763  0.25017   1.3627E-08  8.9937E-08  9.0964E-08   81.384
   219  303   1.2508   2.5017   2.1264  0.25017   2.0362E-07 -3.5053E-08  2.0661E-07   -9.768
   220  303   1.2508   2.5017   2.3766  0.25017   1.4127E-07 -4.3953E-08  1.4795E-07  -17.282
   221  304   3.7525   2.5017  -2.3766  0.25017  -1.9029E-07  3.4068E-08  1.9331E-07  169.850
   222  304   3.7525   2.5017  -2.1264  0.25017  -1.8354E-07  3.3878E-08  1.8664E-07  169.542
   223  304   3.7525   2.5017  -1.8763  0.25017   1.8149E-07 -2.4284E-08  1.8311E-07   -7.621
   224  304   3.7525   2.5017  -1.6261  0.25017   2.0298E-07 -1.0155E-08  2.0324E-07   -2.864
   225  304   3.7525   2.5017  -1.3759  0.25017  -1.2140E-07  6.0627E-08  1.3569E-07  153.462
   226  304   3.7525   2.5017  -1.1258  0.25017  -1.1597E-07  6.3061E-08  1.3201E-07  151.465
   227  304   3.7525   2.5017  -0.8756  0.25017   2.1940E-07  1.6988E-08  2.2005E-07    4.428
   228  304   3.7525   2.5017  -0.6254  0.25017   2.1467E-07  3.4620E-08  2.1744E-07    9.161
   229  304   3.7525   2.5017  -0.3753  0.25017  -1.2961E-07  7.7578E-08  1.5105E-07  149.097
   230  304   3.7525   2.5017  -0.1251  0.25017  -1.4487E-07  3.2514E-08  1.4848E-07  167.351
   231  304   3.7525   2.5017   0.1251  0.25017   1.7047E-07 -4.7667E-08  1.7701E-07  -15.622
   232  304   3.7525   2.5017   0.3753  0.25017   1.5342E-07 -3.9253E-08  1.5837E-07  -14.351
   233  304   3.7525   2.5017   0.6254  0.25017  -1.8991E-07  8.1759E-09  1.9009E-07  177.535
   234  304   3.7525   2.5017   0.8756  0.25017  -1.8813E-07 -1.9856E-08  1.8917E-07 -173.975
   235  304   3.7525   2.5017   1.1258  0.25017   1.5641E-07 -6.2541E-08  1.6845E-07  -21.794
   236  304   3.7525   2.5017   1.3759  0.25017   1.6900E-07 -1.2427E-08  1.6945E-07   -4.206
   237  304   3.7525   2.5017   1.6261  0.25017  -1.5109E-07  4.5108E-08  1.5768E-07  163.377
   238  304   3.7525   2.5017   1.8763  0.25017  -1.2854E-07 -1.1601E-08  1.2906E-07 -174.843
   239  304   3.7525   2.5017   2.1264  0.25017   2.2776E-07 -8.7122E-08  2.4386E-07  -20.932
   240  304   3.7525   2.5017   2.3766  0.25017   2.0879E-07 -4.4124E-08  2.1340E-07  -11.933



                                        - - - POWER BUDGET - - -

                                           INPUT POWER   = 2.4733E-08 WATTS
                                           RADIATED POWER= 2.4733E-08 WATTS
                                           STRUCTURE LOSS= 0.0000E+00 WATTS
                                           NETWORK LOSS  = 0.0000E+00 WATTS
                                           EFFICIENCY    = 100.00 PERCENT



                                                - - - RADIATION PATTERNS - - -

  - - ANGLES - -       - DIRECTIVE GAINS -       - - - POLARIZATION - - -    - - - E(THETA) - - -    - - - E(PHI) - - -
  THETA     PHI        VERT.   HOR.    TOTAL      AXIAL     TILT   SENSE     MAGNITUDE    PHASE      MAGNITUDE    PHASE 
 DEGREES  DEGREES       DB      DB      DB        RATIO     DEG.              VOLTS/M    DEGREES      VOLTS/M    DEGREES
    0.00     0.00    -999.99 -999.99 -999.99    0.00000     0.00            0.00000E+00     0.00    0.00000E+00     0.00
    5.00     0.00      -6.49 -999.99   -6.49    0.00000     0.00  LINEAR    5.76973E-04   125.42    0.00000E+00     0.00
   10.00     0.00       0.08 -999.99    0.08    0.00000     0.00  LINEAR    1.22926E-03     2.26    0.00000E+00     0.00
   15.00     0.00       4.55 -999.99    4.55    0.00000     0.00  LINEAR    2.05658E-03  -113.28    0.00000E+00     0.00
   20.00     0.00       6.45 -999.99    6.45    0.00000     0.00  LINEAR    2.55865E-03   138.57    0.00000E+00     0.00
   25.00     0.00       7.07 -999.99    7.07    0.00000     0.00  LINEAR    2.74761E-03    32.80    0.00000E+00     0.00
   30.00     0.00       5.01 -999.99    5.01    0.00000     0.00  LINEAR    2.16827E-03   -75.42    0.00000E+00     0.00
   35.00     0.00       0.76 -999.99    0.76    0.00000     0.00  LINEAR    1.32865E-03  -176.34    0.00000E+00     0.00
   40.00     0.00     -21.15 -999.99  -21.15    0.00000     0.00  LINEAR    1.06732E-04   149.72    0.00000E+00     0.00
   45.00     0.00      -3.24 -999.99   -3.24    0.00000     0.00  LINEAR    8.38550E-04  -176.95    0.00000E+00     0.00
   50.00     0.00      -7.34 -999.99   -7.34    0.00000     0.00  LINEAR    5.22835E-04   100.66    0.00000E+00     0.00
   55.00     0.00      -5.29 -999.99   -5.29    0.00000     0.00  LINEAR    6.62309E-04  -133.65    0.00000E+00     0.00
   60.00     0.00       0.52 -999.99    0.52    0.00000     0.00  LINEAR    1.29220E-03   161.31    0.00000E+00     0.00
   65.00     0.00      -3.92 -999.99   -3.92    0.00000     0.00  LINEAR    7.75638E-04   107.42    0.00000E+00     0.00
   70.00     0.00     -10.35 -999.99  -10.35    0.00000     0.00  LINEAR    3.69696E-04  -153.40    0.00000E+00     0.00
   75.00     0.00      -7.05 -999.99   -7.05    0.00000     0.00  LINEAR    5.40660E-04  -174.76    0.00000E+00     0.00
   80.00     0.00      -7.18 -999.99   -7.18    0.00000     0.00  LINEAR    5.32737E-04    -4.63    0.00000E+00     0.00
   85.00     0.00       0.23 -999.99    0.23    0.00000     0.00  LINEAR    1.25035E-03   -19.32    0.00000E+00     0.00
   90.00     0.00      -6.92 -999.99   -6.92    0.00000     0.00  LINEAR    5.48977E-04     1.47    0.00000E+00     0.00
    0.00     5.00    -999.99 -999.99 -999.99    0.00000     0.00            0.00000E+00     0.00    0.00000E+00     0.00
    5.00     5.00      -6.48 -999.99   -6.48    0.00000     0.00  LINEAR    5.77641E-04   125.86    0.00000E+00     0.00
   10.00     5.00       0.10 -999.99    0.10    0.00000     0.00  LINEAR    1.23223E-03     3.19    0.00000E+00     0.00
   15.00     5.00       4.54 -999.99    4.54    0.00000     0.00  LINEAR    2.05449E-03  -111.80    0.00000E+00     0.00
   20.00     5.00       6.45 -999.99    6.45    0.00000     0.00  LINEAR    2.55878E-03   140.05    0.00000E+00     0.00
   25.00     5.00       7.06 -999.99    7.06    0.00000     0.00  LINEAR    2.74514E-03    34.22    0.00000E+00     0.00
   30.00     5.00       5.17 -999.99    5.17    0.00000     0.00  LINEAR    2.20816E-03   -73.49    0.00000E+00     0.00
   35.00     5.00       0.72 -999.99    0.72    0.00000     0.00  LINEAR    1.32342E-03  -174.17    0.00000E+00     0.00
   40.00     5.00     -30.51 -999.99  -30.51    0.00000     0.00  LINEAR    3.63066E-05   144.65    0.00000E+00     0.00
   45.00     5.00      -3.33 -999.99   -3.33    0.00000     0.00  LINEAR    8.30022E-04  -170.71    0.00000E+00     0.00
   50.00     5.00      -7.26 -999.99   -7.26    0.00000     0.00  LINEAR    5.28107E-04   107.29    0.00000E+00     0.00
   55.00     5.00      -5.41 -999.99   -5.41    0.00000     0.00  LINEAR    6.52887E-04  -132.84    0.00000E+00     0.00
   60.00     5.00       0.84 -999.99    0.84    0.00000     0.00  LINEAR    1.34102E-03   160.91    0.00000E+00     0.00
   65.00     5.00      -3.55 -999.99   -3.55    0.00000     0.00  LINEAR    8.09407E-04   108.10    0.00000E+00     0.00
   70.00     5.00      -9.76 -999.99   -9.76    0.00000     0.00  LINEAR    3.95800E-04  -138.54    0.00000E+00     0.00
   75.00     5.00      -6.33 -999.99   -6.33    0.00000     0.00  LINEAR    5.87382E-04  -168.33    0.00000E+00     0.00
   80.00     5.00      -7.36 -999.99   -7.36    0.00000     0.00  LINEAR    5.22040E-04     6.75    0.00000E+00     0.00
   85.00     5.00       0.25 -999.99    0.25    0.00000     0.00  LINEAR    1.25334E-03   -11.76    0.00000E+00     0.00
   90.00     5.00      -7.62 -999.99   -7.62    0.00000     0.00  LINEAR    5.06580E-04     7.49    0.00000E+00     0.00
    0.00    10.00    -999.99 -999.99 -999.99    0.00000     0.00            0.00000E+00     0.00    0.00000E+00     0.00
    5.00    10.00      -6.45 -999.99   -6.45    0.00000     0.00  LINEAR    5.79615E-04   127.18    0.00000E+00     0.00
   10.00    10.00       0.16 -999.99    0.16    0.00000     0.00  LINEAR    1.24087E-03     5.96    0.00000E+00     0.00
   15.00    10.00       4.53 -999.99    4.53    0.00000     0.00  LINEAR    2.05088E-03  -107.36    0.00000E+00     0.00
   20.00    10.00       6.44 -999.99    6.44    0.00000     0.00  LINEAR    2.55639E-03   144.55    0.00000E+00     0.00
   25.00    10.00       7.04 -999.99    7.04    0.00000     0.00  LINEAR    2.73909E-03    38.91    0.00000E+00     0.00
   30.00    10.00       5.55 -999.99    5.55    0.00000     0.00  LINEAR    2.30787E-03   -67.57    0.00000E+00     0.00
   35.00    10.00       0.64 -999.99    0.64    0.00000     0.00  LINEAR    1.31072E-03  -167.07    0.00000E+00     0.00
   40.00    10.00     -19.75 -999.99  -19.75    0.00000     0.00  LINEAR    1.25383E-04   -18.60    0.00000E+00     0.00
   45.00    10.00      -3.34 -999.99   -3.34    0.00000     0.00  LINEAR    8.29187E-04  -152.12    0.00000E+00     0.00
   50.00    10.00      -6.97 -999.99   -6.97    0.00000     0.00  LINEAR    5.45863E-04   125.45    0.00000E+00     0.00
   55.00    10.00      -5.25 -999.99   -5.25    0.00000     0.00  LINEAR    6.65320E-04  -126.91    0.00000E+00     0.00
   60.00    10.00       1.40 -999.99    1.40    0.00000     0.00  LINEAR    1.43082E-03   167.60    0.00000E+00     0.00
   65.00    10.00      -2.95 -999.99   -2.95    0.00000     0.00  LINEAR    8.66824E-04   118.38    0.00000E+00     0.00
   70.00    10.00      -7.64 -999.99   -7.64    0.00000     0.00  LINEAR    5.05243E-04  -114.86    0.00000E+00     0.00
   75.00    10.00      -5.28 -999.99   -5.28    0.00000     0.00  LINEAR    6.62794E-04  -150.43    0.00000E+00     0.00
   80.00    10.00      -6.80 -999.99   -6.80    0.00000     0.00  LINEAR    5.56701E-04    31.07    0.00000E+00     0.00
   85.00    10.00       0.51 -999.99    0.51    0.00000     0.00  LINEAR    1.29146E-03     8.13    0.00000E+00     0.00
   90.00    10.00      -8.28 -999.99   -8.28    0.00000     0.00  LINEAR    4.69217E-04    27.10    0.00000E+00     0.00
    0.00    15.00    -999.99 -999.99 -999.99    0.00000     0.00            0.00000E+00     0.00    0.00000E+00     0.00
    5.00    15.00      -6.40 -999.99   -6.40    0.00000     0.00  LINEAR    5.82810E-04   129.36    0.00000E+00     0.00
   10.00    15.00       0.26 -999.99    0.26    0.00000     0.00  LINEAR    1.25453E-03    10.54    0.00000E+00     0.00
   15.00    15.00       4.54 -999.99    4.54    0.00000     0.00  LINEAR    2.05286E-03  -100.03    0.00000E+00     0.00
   20.00    15.00       6.40 -999.99    6.40    0.00000     0.00  LINEAR    2.54346E-03   152.24    0.00000E+00     0.00
   25.00    15.00       7.03 -999.99    7.03    0.00000     0.00  LINEAR    2.73703E-03    47.83    0.00000E+00     0.00
   30.00    15.00       5.93 -999.99    5.93    0.00000     0.00  LINEAR    2.41049E-03   -57.28    0.00000E+00     0.00
   35.00    15.00       0.56 -999.99    0.56    0.00000     0.00  LINEAR    1.29853E-03  -153.72    0.00000E+00     0.00
   40.00    15.00     -13.58 -999.99  -13.58    0.00000     0.00  LINEAR    2.55137E-04   -12.25    0.00000E+00     0.00
   45.00    15.00      -2.68 -999.99   -2.68    0.00000     0.00  LINEAR    8.94761E-04  -125.98    0.00000E+00     0.00
   50.00    15.00      -6.65 -999.99   -6.65    0.00000     0.00  LINEAR    5.66432E-04   150.24    0.00000E+00     0.00
   55.00    15.00      -4.65 -999.99   -4.65    0.00000     0.00  LINEAR    7.13060E-04  -111.10    0.00000E+00     0.00
   60.00    15.00       1.65 -999.99    1.65    0.00000     0.00  LINEAR    1.47205E-03  -169.54    0.00000E+00     0.00
   65.00    15.00      -2.67 -999.99   -2.67    0.00000     0.00  LINEAR    8.95072E-04   145.12    0.00000E+00     0.00
   70.00    15.00      -6.89 -999.99   -6.89    0.00000     0.00  LINEAR    5.50817E-04  -100.42    0.00000E+00     0.00
   75.00    15.00      -5.05 -999.99   -5.05    0.00000     0.00  LINEAR    6.80835E-04  -125.71    0.00000E+00     0.00
   80.00    15.00      -6.09 -999.99   -6.09    0.00000     0.00  LINEAR    6.03939E-04    51.43    0.00000E+00     0.00
   85.00    15.00       0.94 -999.99    0.94    0.00000     0.00  LINEAR    1.35676E-03    32.99    0.00000E+00     0.00
   90.00    15.00      -7.34 -999.99   -7.34    0.00000     0.00  LINEAR    5.23256E-04    51.72    0.00000E+00     0.00
    0.00    20.00    -999.99 -999.99 -999.99    0.00000     0.00            0.00000E+00     0.00    0.00000E+00     0.00
    5.00    20.00      -6.34 -999.99   -6.34    0.00000     0.00  LINEAR    5.87078E-04   132.39    0.00000E+00     0.00
   10.00    20.00       0.38 -999.99    0.38    0.00000     0.00  LINEAR    1.27231E-03    16.85    0.00000E+00     0.00
   15.00    20.00       4.60 -999.99    4.60    0.00000     0.00  LINEAR    2.06878E-03   -90.01    0.00000E+00     0.00
   20.00    20.00       6.29 -999.99    6.29    0.00000     0.00  LINEAR    2.51134E-03   163.54    0.00000E+00     0.00
   25.00    20.00       7.09 -999.99    7.09    0.00000     0.00  LINEAR    2.75552E-03    61.61    0.00000E+00     0.00
   30.00    20.00       6.05 -999.99    6.05    0.00000     0.00  LINEAR    2.44472E-03   -41.73    0.00000E+00     0.00
   35.00    20.00       0.56 -999.99    0.56    0.00000     0.00  LINEAR    1.29845E-03  -133.24    0.00000E+00     0.00
   40.00    20.00     -13.55 -999.99  -13.55    0.00000     0.00  LINEAR    2.55940E-04     0.64    0.00000E+00     0.00
   45.00    20.00      -1.85 -999.99   -1.85    0.00000     0.00  LINEAR    9.83881E-04  -102.02    0.00000E+00     0.00
   50.00    20.00      -6.71 -999.99   -6.71    0.00000     0.00  LINEAR    5.62417E-04   177.20    0.00000E+00     0.00
   55.00    20.00      -4.81 -999.99   -4.81    0.00000     0.00  LINEAR    7.00023E-04   -82.10    0.00000E+00     0.00
   60.00    20.00       1.68 -999.99    1.68    0.00000     0.00  LINEAR    1.47709E-03  -133.69    0.00000E+00     0.00
   65.00    20.00      -3.13 -999.99   -3.13    0.00000     0.00  LINEAR    8.49051E-04  -178.19    0.00000E+00     0.00
   70.00    20.00      -9.63 -999.99   -9.63    0.00000     0.00  LINEAR    4.01971E-04   -72.68    0.00000E+00     0.00
   75.00    20.00      -6.83 -999.99   -6.83    0.00000     0.00  LINEAR    5.54884E-04   -96.31    0.00000E+00     0.00
   80.00    20.00      -6.67 -999.99   -6.67    0.00000     0.00  LINEAR    5.65048E-04    82.06    0.00000E+00     0.00
   85.00    20.00       0.42 -999.99    0.42    0.00000     0.00  LINEAR    1.27740E-03    65.40    0.00000E+00     0.00
   90.00    20.00      -6.99 -999.99   -6.99    0.00000     0.00  LINEAR    5.44465E-04    84.68    0.00000E+00     0.00
    0.00    25.00    -999.99 -999.99 -999.99    0.00000     0.00            0.00000E+00     0.00    0.00000E+00     0.00
    5.00    25.00      -6.26 -999.99   -6.26    0.00000     0.00  LINEAR    5.92218E-04   136.22    0.00000E+00     0.00
   10.00    25.00       0.52 -999.99    0.52    0.00000     0.00  LINEAR    1.29345E-03    24.84    0.00000E+00     0.00
   15.00    25.00       4.74 -999.99    4.74    0.00000     0.00  LINEAR    2.10226E-03   -77.67    0.00000E+00     0.00
   20.00    25.00       6.13 -999.99    6.13    0.00000     0.00  LINEAR    2.46517E-03   179.09    0.00000E+00     0.00
   25.00    25.00       7.23 -999.99    7.23    0.00000     0.00  LINEAR    2.79986E-03    79.90    0.00000E+00     0.00
   30.00    25.00       5.85 -999.99    5.85    0.00000     0.00  LINEAR    2.38794E-03   -19.36    0.00000E+00     0.00
   35.00    25.00       0.65 -999.99    0.65    0.00000     0.00  LINEAR    1.31225E-03  -106.31    0.00000E+00     0.00
   40.00    25.00     -18.52 -999.99  -18.52    0.00000     0.00  LINEAR    1.44342E-04    22.31    0.00000E+00     0.00
   45.00    25.00      -2.20 -999.99   -2.20    0.00000     0.00  LINEAR    9.44993E-04   -80.61    0.00000E+00     0.00
   50.00    25.00      -7.25 -999.99   -7.25    0.00000     0.00  LINEAR    5.28525E-04  -154.91    0.00000E+00     0.00
   55.00    25.00      -4.99 -999.99   -4.99    0.00000     0.00  LINEAR    6.85611E-04   -34.48    0.00000E+00     0.00
   60.00    25.00       1.42 -999.99    1.42    0.00000     0.00  LINEAR    1.43478E-03   -89.54    0.00000E+00     0.00
   65.00    25.00      -4.38 -999.99   -4.38    0.00000     0.00  LINEAR    7.35250E-04  -129.11    0.00000E+00     0.00
   70.00    25.00      -8.83 -999.99   -8.83    0.00000     0.00  LINEAR    4.40782E-04   -10.41    0.00000E+00     0.00
   75.00    25.00      -8.68 -999.99   -8.68    0.00000     0.00  LINEAR    4.48341E-04   -42.83    0.00000E+00     0.00
   80.00    25.00      -5.66 -999.99   -5.66    0.00000     0.00  LINEAR    6.34841E-04   131.15    0.00000E+00     0.00
   85.00    25.00       0.51 -999.99    0.51    0.00000     0.00  LINEAR    1.29165E-03   115.13    0.00000E+00     0.00
   90.00    25.00      -6.26 -999.99   -6.26    0.00000     0.00  LINEAR    5.92418E-04   133.45    0.00000E+00     0.00
    0.00    30.00    -999.99 -999.99 -999.99    0.00000     0.00            0.00000E+00     0.00    0.00000E+00     0.00
    5.00    30.00      -6.18 -999.99   -6.18    0.00000     0.00  LINEAR    5.97974E-04   140.83    0.00000E+00     0.00
   10.00    30.00       0.68 -999.99    0.68    0.00000     0.00  LINEAR    1.31752E-03    34.39    0.00000E+00     0.00
   15.00    30.00       4.92 -999.99    4.92    0.00000     0.00  LINEAR    2.14651E-03   -63.45    0.00000E+00     0.00
   20.00    30.00       6.04 -999.99    6.04    0.00000     0.00  LINEAR    2.44075E-03  -160.73    0.00000E+00     0.00
   25.00    30.00       7.32 -999.99    7.32    0.00000     0.00  LINEAR    2.82980E-03   101.97    0.00000E+00     0.00
   30.00    30.00       5.62 -999.99    5.62    0.00000     0.00  LINEAR    2.32536E-03    10.62    0.00000E+00     0.00
   35.00    30.00       0.65 -999.99    0.65    0.00000     0.00  LINEAR    1.31260E-03   -73.99    0.00000E+00     0.00
   40.00    30.00     -38.83 -999.99  -38.83    0.00000     0.00  LINEAR    1.39387E-05    77.68    0.00000E+00     0.00
   45.00    30.00      -3.80 -999.99   -3.80    0.00000     0.00  LINEAR    7.86437E-04   -51.38    0.00000E+00     0.00
   50.00    30.00      -8.06 -999.99   -8.06    0.00000     0.00  LINEAR    4.81291E-04  -120.64    0.00000E+00     0.00
   55.00    30.00      -3.94 -999.99   -3.94    0.00000     0.00  LINEAR    7.73785E-04    11.69    0.00000E+00     0.00
   60.00    30.00       1.78 -999.99    1.78    0.00000     0.00  LINEAR    1.49555E-03   -41.82    0.00000E+00     0.00
   65.00    30.00      -3.20 -999.99   -3.20    0.00000     0.00  LINEAR    8.42466E-04   -78.64    0.00000E+00     0.00
   70.00    30.00      -8.08 -999.99   -8.08    0.00000     0.00  LINEAR    4.80369E-04    26.54    0.00000E+00     0.00
   75.00    30.00      -6.89 -999.99   -6.89    0.00000     0.00  LINEAR    5.50838E-04     7.68    0.00000E+00     0.00
   80.00    30.00      -6.29 -999.99   -6.29    0.00000     0.00  LINEAR    5.89993E-04   174.84    0.00000E+00     0.00
   85.00    30.00       0.62 -999.99    0.62    0.00000     0.00  LINEAR    1.30779E-03   161.95    0.00000E+00     0.00
   90.00    30.00      -6.98 -999.99   -6.98    0.00000     0.00  LINEAR    5.44964E-04  -178.81    0.00000E+00     0.00
    0.00    35.00    -999.99 -999.99 -999.99    0.00000     0.00            0.00000E+00     0.00    0.00000E+00     0.00
    5.00    35.00      -6.09 -999.99   -6.09    0.00000     0.00  LINEAR    6.04063E-04   146.17    0.00000E+00     0.00
   10.00    35.00       0.86 -999.99    0.86    0.00000     0.00  LINEAR    1.34435E-03    45.39    0.00000E+00     0.00
   15.00    35.00       5.08 -999.99    5.08    0.00000     0.00  LINEAR    2.18515E-03   -47.51    0.00000E+00     0.00
   20.00    35.00       6.21 -999.99    6.21    0.00000     0.00  LINEAR    2.48965E-03  -136.80    0.00000E+00     0.00
   25.00    35.00       7.21 -999.99    7.21    0.00000     0.00  LINEAR    2.79209E-03   128.20    0.00000E+00     0.00
   30.00    35.00       5.72 -999.99    5.72    0.00000     0.00  LINEAR    2.35139E-03    45.61    0.00000E+00     0.00
   35.00    35.00       0.47 -999.99    0.47    0.00000     0.00  LINEAR    1.28572E-03   -35.71    0.00000E+00     0.00
   40.00    35.00     -23.25 -999.99  -23.25    0.00000     0.00  LINEAR    8.37364E-05  -110.28    0.00000E+00     0.00
   45.00    35.00      -4.61 -999.99   -4.61    0.00000     0.00  LINEAR    7.16240E-04    -6.02    0.00000E+00     0.00
   50.00    35.00      -7.82 -999.99   -7.82    0.00000     0.00  LINEAR    4.94804E-04   -68.88    0.00000E+00     0.00
   55.00    35.00      -4.65 -999.99   -4.65    0.00000     0.00  LINEAR    7.13190E-04    54.33    0.00000E+00     0.00
   60.00    35.00       1.66 -999.99    1.66    0.00000     0.00  LINEAR    1.47385E-03     5.51    0.00000E+00     0.00
   65.00    35.00      -2.49 -999.99   -2.49    0.00000     0.00  LINEAR    9.13953E-04   -36.90    0.00000E+00     0.00
   70.00    35.00     -10.30 -999.99  -10.30    0.00000     0.00  LINEAR    3.72093E-04    90.13    0.00000E+00     0.00
   75.00    35.00      -6.21 -999.99   -6.21    0.00000     0.00  LINEAR    5.96021E-04    66.76    0.00000E+00     0.00
   80.00    35.00      -8.41 -999.99   -8.41    0.00000     0.00  LINEAR    4.62220E-04  -111.24    0.00000E+00     0.00
   85.00    35.00      -0.62 -999.99   -0.62    0.00000     0.00  LINEAR    1.13340E-03  -129.38    0.00000E+00     0.00
   90.00    35.00      -7.87 -999.99   -7.87    0.00000     0.00  LINEAR    4.92393E-04  -107.30    0.00000E+00     0.00
    0.00    40.00    -999.99 -999.99 -999.99    0.00000     0.00            0.00000E+00     0.00    0.00000E+00     0.00
    5.00    40.00      -6.00 -999.99   -6.00    0.00000     0.00  LINEAR    6.10203E-04   152.23    0.00000E+00     0.00
   10.00    40.00       1.04 -999.99    1.04    0.00000     0.00  LINEAR    1.37313E-03    57.62    0.00000E+00     0.00
   15.00    40.00       5.15 -999.99    5.15    0.00000     0.00  LINEAR    2.20291E-03   -29.70    0.00000E+00     0.00
   20.00    40.00       6.63 -999.99    6.63    0.00000     0.00  LINEAR    2.61304E-03  -111.26    0.00000E+00     0.00
   25.00    40.00       7.00 -999.99    7.00    0.00000     0.00  LINEAR    2.72557E-03   159.76    0.00000E+00     0.00
   30.00    40.00       5.88 -999.99    5.88    0.00000     0.00  LINEAR    2.39764E-03    82.57    0.00000E+00     0.00
   35.00    40.00       0.44 -999.99    0.44    0.00000     0.00  LINEAR    1.28091E-03     8.39    0.00000E+00     0.00
   40.00    40.00     -21.81 -999.99  -21.81    0.00000     0.00  LINEAR    9.89052E-05   -90.79    0.00000E+00     0.00
   45.00    40.00      -3.83 -999.99   -3.83    0.00000     0.00  LINEAR    7.83640E-04    46.54    0.00000E+00     0.00
   50.00    40.00      -5.93 -999.99   -5.93    0.00000     0.00  LINEAR    6.15502E-04   -12.78    0.00000E+00     0.00
   55.00    40.00      -6.02 -999.99   -6.02    0.00000     0.00  LINEAR    6.09203E-04   112.28    0.00000E+00     0.00
   60.00    40.00       1.41 -999.99    1.41    0.00000     0.00  LINEAR    1.43266E-03    69.19    0.00000E+00     0.00
   65.00    40.00      -2.97 -999.99   -2.97    0.00000     0.00  LINEAR    8.65319E-04    26.40    0.00000E+00     0.00
   70.00    40.00     -11.11 -999.99  -11.11    0.00000     0.00  LINEAR    3.38800E-04   149.16    0.00000E+00     0.00
   75.00    40.00      -5.61 -999.99   -5.61    0.00000     0.00  LINEAR    6.38655E-04   127.98    0.00000E+00     0.00
   80.00    40.00      -7.56 -999.99   -7.56    0.00000     0.00  LINEAR    5.09727E-04   -44.74    0.00000E+00     0.00
   85.00    40.00       0.54 -999.99    0.54    0.00000     0.00  LINEAR    1.29543E-03   -61.25    0.00000E+00     0.00
   90.00    40.00      -7.30 -999.99   -7.30    0.00000     0.00  LINEAR    5.25359E-04   -42.39    0.00000E+00     0.00
    0.00    45.00    -999.99 -999.99 -999.99    0.00000     0.00            0.00000E+00     0.00    0.00000E+00     0.00
    5.00    45.00      -5.92 -999.99   -5.92    0.00000     0.00  LINEAR    6.16154E-04   158.95    0.00000E+00     0.00
   10.00    45.00       1.22 -999.99    1.22    0.00000     0.00  LINEAR    1.40118E-03    70.88    0.00000E+00     0.00
   15.00    45.00       5.14 -999.99    5.14    0.00000     0.00  LINEAR    2.19992E-03    -9.64    0.00000E+00     0.00
   20.00    45.00       7.01 -999.99    7.01    0.00000     0.00  LINEAR    2.72865E-03   -85.32    0.00000E+00     0.00
   25.00    45.00       7.06 -999.99    7.06    0.00000     0.00  LINEAR    2.74393E-03  -164.52    0.00000E+00     0.00
   30.00    45.00       5.85 -999.99    5.85    0.00000     0.00  LINEAR    2.38938E-03   122.73    0.00000E+00     0.00
   35.00    45.00       0.68 -999.99    0.68    0.00000     0.00  LINEAR    1.31756E-03    55.18    0.00000E+00     0.00
   40.00    45.00     -28.39 -999.99  -28.39    0.00000     0.00  LINEAR    4.63652E-05   -87.85    0.00000E+00     0.00
   45.00    45.00      -2.68 -999.99   -2.68    0.00000     0.00  LINEAR    8.94263E-04   101.61    0.00000E+00     0.00
   50.00    45.00      -5.19 -999.99   -5.19    0.00000     0.00  LINEAR    6.70121E-04    46.05    0.00000E+00     0.00
   55.00    45.00      -5.59 -999.99   -5.59    0.00000     0.00  LINEAR    6.39537E-04  -178.52    0.00000E+00     0.00
   60.00    45.00       2.38 -999.99    2.38    0.00000     0.00  LINEAR    1.60077E-03   137.07    0.00000E+00     0.00
   65.00    45.00      -2.01 -999.99   -2.01    0.00000     0.00  LINEAR    9.65863E-04   103.20    0.00000E+00     0.00
   70.00    45.00     -10.82 -999.99  -10.82    0.00000     0.00  LINEAR    3.50492E-04  -126.64    0.00000E+00     0.00
   75.00    45.00      -6.58 -999.99   -6.58    0.00000     0.00  LINEAR    5.71108E-04  -145.98    0.00000E+00     0.00
   80.00    45.00      -7.09 -999.99   -7.09    0.00000     0.00  LINEAR    5.38427E-04    25.84    0.00000E+00     0.00
   85.00    45.00       0.55 -999.99    0.55    0.00000     0.00  LINEAR    1.29803E-03    15.88    0.00000E+00     0.00
   90.00    45.00      -6.92 -999.99   -6.92    0.00000     0.00  LINEAR    5.49057E-04    34.17    0.00000E+00     0.00
    0.00    50.00    -999.99 -999.99 -999.99    0.00000     0.00            0.00000E+00     0.00    0.00000E+00     0.00
    5.00    50.00      -5.84 -999.99   -5.84    0.00000     0.00  LINEAR    6.21763E-04   166.31    0.00000E+00     0.00
   10.00    50.00       1.35 -999.99    1.35    0.00000     0.00  LINEAR    1.42313E-03    84.99    0.00000E+00     0.00
   15.00    50.00       5.12 -999.99    5.12    0.00000     0.00  LINEAR    2.19520E-03    12.73    0.00000E+00     0.00
   20.00    50.00       7.07 -999.99    7.07    0.00000     0.00  LINEAR    2.74828E-03   -58.08    0.00000E+00     0.00
   25.00    50.00       7.30 -999.99    7.30    0.00000     0.00  LINEAR    2.82117E-03  -127.94    0.00000E+00     0.00
   30.00    50.00       5.92 -999.99    5.92    0.00000     0.00  LINEAR    2.40711E-03   166.76    0.00000E+00     0.00
   35.00    50.00       0.88 -999.99    0.88    0.00000     0.00  LINEAR    1.34833E-03   103.76    0.00000E+00     0.00
   40.00    50.00     -35.14 -999.99  -35.14    0.00000     0.00  LINEAR    2.13095E-05   -91.55    0.00000E+00     0.00
   45.00    50.00      -2.71 -999.99   -2.71    0.00000     0.00  LINEAR    8.91808E-04   159.74    0.00000E+00     0.00
   50.00    50.00      -4.92 -999.99   -4.92    0.00000     0.00  LINEAR    6.90924E-04   112.09    0.00000E+00     0.00
   55.00    50.00      -4.52 -999.99   -4.52    0.00000     0.00  LINEAR    7.23879E-04  -115.22    0.00000E+00     0.00
   60.00    50.00       2.32 -999.99    2.32    0.00000     0.00  LINEAR    1.59146E-03  -151.86    0.00000E+00     0.00
[...]
   40.00   315.00     -28.39 -999.99  -28.39    0.00000     0.00  LINEAR    4.63652E-05   -87.85    0.00000E+00     0.00
   45.00   315.00      -2.68 -999.99   -2.68    0.00000     0.00  LINEAR    8.94263E-04   101.61    0.00000E+00     0.00
   50.00   315.00      -5.19 -999.99   -5.19    0.00000     0.00  LINEAR    6.70121E-04    46.05    0.00000E+00     0.00
   55.00   315.00      -5.59 -999.99   -5.59    0.00000     0.00  LINEAR    6.39537E-04  -178.52    0.00000E+00     0.00
   60.00   315.00       2.38 -999.99    2.38    0.00000     0.00  LINEAR    1.60077E-03   137.07    0.00000E+00     0.00
   65.00   315.00      -2.01 -999.99   -2.01    0.00000     0.00  LINEAR    9.65863E-04   103.20    0.00000E+00     0.00
   70.00   315.00     -10.82 -999.99  -10.82    0.00000     0.00  LINEAR    3.50492E-04  -126.64    0.00000E+00     0.00
   75.00   315.00      -6.58 -999.99   -6.58    0.00000     0.00  LINEAR    5.71108E-04  -145.98    0.00000E+00     0.00
   80.00   315.00      -7.09 -999.99   -7.09    0.00000     0.00  LINEAR    5.38427E-04    25.84    0.00000E+00     0.00
   85.00   315.00       0.55 -999.99    0.55    0.00000     0.00  LINEAR    1.29803E-03    15.88    0.00000E+00     0.00
   90.00   315.00      -6.92 -999.99   -6.92    0.00000     0.00  LINEAR    5.49057E-04    34.17    0.00000E+00     0.00
    0.00   320.00    -999.99 -999.99 -999.99    0.00000     0.00            0.00000E+00     0.00    0.00000E+00     0.00
    5.00   320.00      -6.00 -999.99   -6.00    0.00000     0.00  LINEAR    6.10203E-04   152.23    0.00000E+00     0.00
   10.00   320.00       1.04 -999.99    1.04    0.00000     0.00  LINEAR    1.37313E-03    57.62    0.00000E+00     0.00
   15.00   320.00       5.15 -999.99    5.15    0.00000     0.00  LINEAR    2.20291E-03   -29.70    0.00000E+00     0.00
   20.00   320.00       6.63 -999.99    6.63    0.00000     0.00  LINEAR    2.61304E-03  -111.26    0.00000E+00     0.00
   25.00   320.00       7.00 -999.99    7.00    0.00000     0.00  LINEAR    2.72557E-03   159.76    0.00000E+00     0.00
   30.00   320.00       5.88 -999.99    5.88    0.00000     0.00  LINEAR    2.39764E-03    82.57    0.00000E+00     0.00
   35.00   320.00       0.44 -999.99    0.44    0.00000     0.00  LINEAR    1.28091E-03     8.39    0.00000E+00     0.00
   40.00   320.00     -21.81 -999.99  -21.81    0.00000     0.00  LINEAR    9.89052E-05   -90.79    0.00000E+00     0.00
   45.00   320.00      -3.83 -999.99   -3.83    0.00000     0.00  LINEAR    7.83640E-04    46.54    0.00000E+00     0.00
   50.00   320.00      -5.93 -999.99   -5.93    0.00000     0.00  LINEAR    6.15502E-04   -12.78    0.00000E+00     0.00
   55.00   320.00      -6.02 -999.99   -6.02    0.00000     0.00  LINEAR    6.09203E-04   112.28    0.00000E+00     0.00
   60.00   320.00       1.41 -999.99    1.41    0.00000     0.00  LINEAR    1.43266E-03    69.19    0.00000E+00     0.00
   65.00   320.00      -2.97 -999.99   -2.97    0.00000     0.00  LINEAR    8.65319E-04    26.40    0.00000E+00     0.00
   70.00   320.00     -11.11 -999.99  -11.11    0.00000     0.00  LINEAR    3.38800E-04   149.16    0.00000E+00     0.00
   75.00   320.00      -5.61 -999.99   -5.61    0.00000     0.00  LINEAR    6.38655E-04   127.98    0.00000E+00     0.00
   80.00   320.00      -7.56 -999.99   -7.56    0.00000     0.00  LINEAR    5.09727E-04   -44.74    0.00000E+00     0.00
   85.00   320.00       0.54 -999.99    0.54    0.00000     0.00  LINEAR    1.29543E-03   -61.25    0.00000E+00     0.00
   90.00   320.00      -7.30 -999.99   -7.30    0.00000     0.00  LINEAR    5.25359E-04   -42.39    0.00000E+00     0.00
    0.00   325.00    -999.99 -999.99 -999.99    0.00000     0.00            0.00000E+00     0.00    0.00000E+00     0.00
    5.00   325.00      -6.09 -999.99   -6.09    0.00000     0.00  LINEAR    6.04063E-04   146.17    0.00000E+00     0.00
   10.00   325.00       0.86 -999.99    0.86    0.00000     0.00  LINEAR    1.34435E-03    45.39    0.00000E+00     0.00
   15.00   325.00       5.08 -999.99    5.08    0.00000     0.00  LINEAR    2.18515E-03   -47.51    0.00000E+00     0.00
   20.00   325.00       6.21 -999.99    6.21    0.00000     0.00  LINEAR    2.48965E-03  -136.80    0.00000E+00     0.00
   25.00   325.00       7.21 -999.99    7.21    0.00000     0.00  LINEAR    2.79209E-03   128.20    0.00000E+00     0.00
   30.00   325.00       5.72 -999.99    5.72    0.00000     0.00  LINEAR    2.35139E-03    45.61    0.00000E+00     0.00
   35.00   325.00       0.47 -999.99    0.47    0.00000     0.00  LINEAR    1.28572E-03   -35.71    0.00000E+00     0.00
   40.00   325.00     -23.25 -999.99  -23.25    0.00000     0.00  LINEAR    8.37364E-05  -110.28    0.00000E+00     0.00
   45.00   325.00      -4.61 -999.99   -4.61    0.00000     0.00  LINEAR    7.16240E-04    -6.02    0.00000E+00     0.00
   50.00   325.00      -7.82 -999.99   -7.82    0.00000     0.00  LINEAR    4.94804E-04   -68.88    0.00000E+00     0.00
   55.00   325.00      -4.65 -999.99   -4.65    0.00000     0.00  LINEAR    7.13190E-04    54.33    0.00000E+00     0.00
   60.00   325.00       1.66 -999.99    1.66    0.00000     0.00  LINEAR    1.47385E-03     5.51    0.00000E+00     0.00
   65.00   325.00      -2.49 -999.99   -2.49    0.00000     0.00  LINEAR    9.13953E-04   -36.90    0.00000E+00     0.00
   70.00   325.00     -10.30 -999.99  -10.30    0.00000     0.00  LINEAR    3.72093E-04    90.13    0.00000E+00     0.00
   75.00   325.00      -6.21 -999.99   -6.21    0.00000     0.00  LINEAR    5.96021E-04    66.76    0.00000E+00     0.00
   80.00   325.00      -8.41 -999.99   -8.41    0.00000     0.00  LINEAR    4.62220E-04  -111.24    0.00000E+00     0.00
   85.00   325.00      -0.62 -999.99   -0.62    0.00000     0.00  LINEAR    1.13340E-03  -129.38    0.00000E+00     0.00
   90.00   325.00      -7.87 -999.99   -7.87    0.00000     0.00  LINEAR    4.92393E-04  -107.30    0.00000E+00     0.00
    0.00   330.00    -999.99 -999.99 -999.99    0.00000     0.00            0.00000E+00     0.00    0.00000E+00     0.00
    5.00   330.00      -6.18 -999.99   -6.18    0.00000     0.00  LINEAR    5.97974E-04   140.83    0.00000E+00     0.00
   10.00   330.00       0.68 -999.99    0.68    0.00000     0.00  LINEAR    1.31752E-03    34.39    0.00000E+00     0.00
   15.00   330.00       4.92 -999.99    4.92    0.00000     0.00  LINEAR    2.14651E-03   -63.45    0.00000E+00     0.00
   20.00   330.00       6.04 -999.99    6.04    0.00000     0.00  LINEAR    2.44075E-03  -160.73    0.00000E+00     0.00
   25.00   330.00       7.32 -999.99    7.32    0.00000     0.00  LINEAR    2.82980E-03   101.97    0.00000E+00     0.00
   30.00   330.00       5.62 -999.99    5.62    0.00000     0.00  LINEAR    2.32536E-03    10.62    0.00000E+00     0.00
   35.00   330.00       0.65 -999.99    0.65    0.00000     0.00  LINEAR    1.31260E-03   -73.99    0.00000E+00     0.00
   40.00   330.00     -38.83 -999.99  -38.83    0.00000     0.00  LINEAR    1.39387E-05    77.68    0.00000E+00     0.00
   45.00   330.00      -3.80 -999.99   -3.80    0.00000     0.00  LINEAR    7.86437E-04   -51.38    0.00000E+00     0.00
   50.00   330.00      -8.06 -999.99   -8.06    0.00000     0.00  LINEAR    4.81291E-04  -120.64    0.00000E+00     0.00
   55.00   330.00      -3.94 -999.99   -3.94    0.00000     0.00  LINEAR    7.73785E-04    11.69    0.00000E+00     0.00
   60.00   330.00       1.78 -999.99    1.78    0.00000     0.00  LINEAR    1.49555E-03   -41.82    0.00000E+00     0.00
   65.00   330.00      -3.20 -999.99   -3.20    0.00000     0.00  LINEAR    8.42466E-04   -78.64    0.00000E+00     0.00
   70.00   330.00      -8.08 -999.99   -8.08    0.00000     0.00  LINEAR    4.80369E-04    26.54    0.00000E+00     0.00
   75.00   330.00      -6.89 -999.99   -6.89    0.00000     0.00  LINEAR    5.50838E-04     7.68    0.00000E+00     0.00
   80.00   330.00      -6.29 -999.99   -6.29    0.00000     0.00  LINEAR    5.89993E-04   174.84    0.00000E+00     0.00
   85.00   330.00       0.62 -999.99    0.62    0.00000     0.00  LINEAR    1.30779E-03   161.95    0.00000E+00     0.00
   90.00   330.00      -6.98 -999.99   -6.98    0.00000     0.00  LINEAR    5.44964E-04  -178.81    0.00000E+00     0.00
    0.00   335.00    -999.99 -999.99 -999.99    0.00000     0.00            0.00000E+00     0.00    0.00000E+00     0.00
    5.00   335.00      -6.26 -999.99   -6.26    0.00000     0.00  LINEAR    5.92218E-04   136.22    0.00000E+00     0.00
   10.00   335.00       0.52 -999.99    0.52    0.00000     0.00  LINEAR    1.29345E-03    24.84    0.00000E+00     0.00
   15.00   335.00       4.74 -999.99    4.74    0.00000     0.00  LINEAR    2.10226E-03   -77.67    0.00000E+00     0.00
   20.00   335.00       6.13 -999.99    6.13    0.00000     0.00  LINEAR    2.46517E-03   179.09    0.00000E+00     0.00
   25.00   335.00       7.23 -999.99    7.23    0.00000     0.00  LINEAR    2.79986E-03    79.90    0.00000E+00     0.00
   30.00   335.00       5.85 -999.99    5.85    0.00000     0.00  LINEAR    2.38794E-03   -19.36    0.00000E+00     0.00
   35.00   335.00       0.65 -999.99    0.65    0.00000     0.00  LINEAR    1.31225E-03  -106.31    0.00000E+00     0.00
   40.00   335.00     -18.52 -999.99  -18.52    0.00000     0.00  LINEAR    1.44342E-04    22.31    0.00000E+00     0.00
   45.00   335.00      -2.20 -999.99   -2.20    0.00000     0.00  LINEAR    9.44993E-04   -80.61    0.00000E+00     0.00
   50.00   335.00      -7.25 -999.99   -7.25    0.00000     0.00  LINEAR    5.28525E-04  -154.91    0.00000E+00     0.00
   55.00   335.00      -4.99 -999.99   -4.99    0.00000     0.00  LINEAR    6.85611E-04   -34.48    0.00000E+00     0.00
   60.00   335.00       1.42 -999.99    1.42    0.00000     0.00  LINEAR    1.43478E-03   -89.54    0.00000E+00     0.00
   65.00   335.00      -4.38 -999.99   -4.38    0.00000     0.00  LINEAR    7.35250E-04  -129.11    0.00000E+00     0.00
   70.00   335.00      -8.83 -999.99   -8.83    0.00000     0.00  LINEAR    4.40782E-04   -10.41    0.00000E+00     0.00
   75.00   335.00      -8.68 -999.99   -8.68    0.00000     0.00  LINEAR    4.48341E-04   -42.83    0.00000E+00     0.00
   80.00   335.00      -5.66 -999.99   -5.66    0.00000     0.00  LINEAR    6.34841E-04   131.15    0.00000E+00     0.00
   85.00   335.00       0.51 -999.99    0.51    0.00000     0.00  LINEAR    1.29165E-03   115.13    0.00000E+00     0.00
   90.00   335.00      -6.26 -999.99   -6.26    0.00000     0.00  LINEAR    5.92418E-04   133.45    0.00000E+00     0.00
    0.00   340.00    -999.99 -999.99 -999.99    0.00000     0.00            0.00000E+00     0.00    0.00000E+00     0.00
    5.00   340.00      -6.34 -999.99   -6.34    0.00000     0.00  LINEAR    5.87078E-04   132.39    0.00000E+00     0.00
   10.00   340.00       0.38 -999.99    0.38    0.00000     0.00  LINEAR    1.27231E-03    16.85    0.00000E+00     0.00
   15.00   340.00       4.60 -999.99    4.60    0.00000     0.00  LINEAR    2.06878E-03   -90.01    0.00000E+00     0.00
   20.00   340.00       6.29 -999.99    6.29    0.00000     0.00  LINEAR    2.51134E-03   163.54    0.00000E+00     0.00
   25.00   340.00       7.09 -999.99    7.09    0.00000     0.00  LINEAR    2.75552E-03    61.61    0.00000E+00     0.00
   30.00   340.00       6.05 -999.99    6.05    0.00000     0.00  LINEAR    2.44472E-03   -41.73    0.00000E+00     0.00
   35.00   340.00       0.56 -999.99    0.56    0.00000     0.00  LINEAR    1.29845E-03  -133.24    0.00000E+00     0.00
   40.00   340.00     -13.55 -999.99  -13.55    0.00000     0.00  LINEAR    2.55940E-04     0.64    0.00000E+00     0.00
   45.00   340.00      -1.85 -999.99   -1.85    0.00000     0.00  LINEAR    9.83881E-04  -102.02    0.00000E+00     0.00
   50.00   340.00      -6.71 -999.99   -6.71    0.00000     0.00  LINEAR    5.62417E-04   177.20    0.00000E+00     0.00
   55.00   340.00      -4.81 -999.99   -4.81    0.00000     0.00  LINEAR    7.00023E-04   -82.10    0.00000E+00     0.00
   60.00   340.00       1.68 -999.99    1.68    0.00000     0.00  LINEAR    1.47709E-03  -133.69    0.00000E+00     0.00
   65.00   340.00      -3.13 -999.99   -3.13    0.00000     0.00  LINEAR    8.49051E-04  -178.19    0.00000E+00     0.00
   70.00   340.00      -9.63 -999.99   -9.63    0.00000     0.00  LINEAR    4.01971E-04   -72.68    0.00000E+00     0.00
   75.00   340.00      -6.83 -999.99   -6.83    0.00000     0.00  LINEAR    5.54884E-04   -96.31    0.00000E+00     0.00
   80.00   340.00      -6.67 -999.99   -6.67    0.00000     0.00  LINEAR    5.65048E-04    82.06    0.00000E+00     0.00
   85.00   340.00       0.42 -999.99    0.42    0.00000     0.00  LINEAR    1.27740E-03    65.40    0.00000E+00     0.00
   90.00   340.00      -6.99 -999.99   -6.99    0.00000     0.00  LINEAR    5.44465E-04    84.68    0.00000E+00     0.00
    0.00   345.00    -999.99 -999.99 -999.99    0.00000     0.00            0.00000E+00     0.00    0.00000E+00     0.00
    5.00   345.00      -6.40 -999.99   -6.40    0.00000     0.00  LINEAR    5.82810E-04   129.36    0.00000E+00     0.00
   10.00   345.00       0.26 -999.99    0.26    0.00000     0.00  LINEAR    1.25453E-03    10.54    0.00000E+00     0.00
   15.00   345.00       4.54 -999.99    4.54    0.00000     0.00  LINEAR    2.05286E-03  -100.03    0.00000E+00     0.00
   20.00   345.00       6.40 -999.99    6.40    0.00000     0.00  LINEAR    2.54346E-03   152.24    0.00000E+00     0.00
   25.00   345.00       7.03 -999.99    7.03    0.00000     0.00  LINEAR    2.73703E-03    47.83    0.00000E+00     0.00
   30.00   345.00       5.93 -999.99    5.93    0.00000     0.00  LINEAR    2.41049E-03   -57.28    0.00000E+00     0.00
   35.00   345.00       0.56 -999.99    0.56    0.00000     0.00  LINEAR    1.29853E-03  -153.72    0.00000E+00     0.00
   40.00   345.00     -13.58 -999.99  -13.58    0.00000     0.00  LINEAR    2.55137E-04   -12.25    0.00000E+00     0.00
   45.00   345.00      -2.68 -999.99   -2.68    0.00000     0.00  LINEAR    8.94761E-04  -125.98    0.00000E+00     0.00
   50.00   345.00      -6.65 -999.99   -6.65    0.00000     0.00  LINEAR    5.66432E-04   150.24    0.00000E+00     0.00
   55.00   345.00      -4.65 -999.99   -4.65    0.00000     0.00  LINEAR    7.13060E-04  -111.10    0.00000E+00     0.00
   60.00   345.00       1.65 -999.99    1.65    0.00000     0.00  LINEAR    1.47205E-03  -169.54    0.00000E+00     0.00
   65.00   345.00      -2.67 -999.99   -2.67    0.00000     0.00  LINEAR    8.95072E-04   145.12    0.00000E+00     0.00
   70.00   345.00      -6.89 -999.99   -6.89    0.00000     0.00  LINEAR    5.50817E-04  -100.42    0.00000E+00     0.00
   75.00   345.00      -5.05 -999.99   -5.05    0.00000     0.00  LINEAR    6.80835E-04  -125.71    0.00000E+00     0.00
   80.00   345.00      -6.09 -999.99   -6.09    0.00000     0.00  LINEAR    6.03939E-04    51.43    0.00000E+00     0.00
   85.00   345.00       0.94 -999.99    0.94    0.00000     0.00  LINEAR    1.35676E-03    32.99    0.00000E+00     0.00
   90.00   345.00      -7.34 -999.99   -7.34    0.00000     0.00  LINEAR    5.23256E-04    51.72    0.00000E+00     0.00
    0.00   350.00    -999.99 -999.99 -999.99    0.00000     0.00            0.00000E+00     0.00    0.00000E+00     0.00
    5.00   350.00      -6.45 -999.99   -6.45    0.00000     0.00  LINEAR    5.79615E-04   127.18    0.00000E+00     0.00
   10.00   350.00       0.16 -999.99    0.16    0.00000     0.00  LINEAR    1.24087E-03     5.96    0.00000E+00     0.00
   15.00   350.00       4.53 -999.99    4.53    0.00000     0.00  LINEAR    2.05088E-03  -107.36    0.00000E+00     0.00
   20.00   350.00       6.44 -999.99    6.44    0.00000     0.00  LINEAR    2.55639E-03   144.55    0.00000E+00     0.00
   25.00   350.00       7.04 -999.99    7.04    0.00000     0.00  LINEAR    2.73909E-03    38.91    0.00000E+00     0.00
   30.00   350.00       5.55 -999.99    5.55    0.00000     0.00  LINEAR    2.30787E-03   -67.57    0.00000E+00     0.00
   35.00   350.00       0.64 -999.99    0.64    0.00000     0.00  LINEAR    1.31072E-03  -167.07    0.00000E+00     0.00
   40.00   350.00     -19.75 -999.99  -19.75    0.00000     0.00  LINEAR    1.25383E-04   -18.60    0.00000E+00     0.00
   45.00   350.00      -3.34 -999.99   -3.34    0.00000     0.00  LINEAR    8.29187E-04  -152.12    0.00000E+00     0.00
   50.00   350.00      -6.97 -999.99   -6.97    0.00000     0.00  LINEAR    5.45863E-04   125.45    0.00000E+00     0.00
   55.00   350.00      -5.25 -999.99   -5.25    0.00000     0.00  LINEAR    6.65320E-04  -126.91    0.00000E+00     0.00
   60.00   350.00       1.40 -999.99    1.40    0.00000     0.00  LINEAR    1.43082E-03   167.60    0.00000E+00     0.00
   65.00   350.00      -2.95 -999.99   -2.95    0.00000     0.00  LINEAR    8.66824E-04   118.38    0.00000E+00     0.00
   70.00   350.00      -7.64 -999.99   -7.64    0.00000     0.00  LINEAR    5.05243E-04  -114.86    0.00000E+00     0.00
   75.00   350.00      -5.28 -999.99   -5.28    0.00000     0.00  LINEAR    6.62794E-04  -150.43    0.00000E+00     0.00
   80.00   350.00      -6.80 -999.99   -6.80    0.00000     0.00  LINEAR    5.56701E-04    31.07    0.00000E+00     0.00
   85.00   350.00       0.51 -999.99    0.51    0.00000     0.00  LINEAR    1.29146E-03     8.13    0.00000E+00     0.00
   90.00   350.00      -8.28 -999.99   -8.28    0.00000     0.00  LINEAR    4.69217E-04    27.10    0.00000E+00     0.00
    0.00   355.00    -999.99 -999.99 -999.99    0.00000     0.00            0.00000E+00     0.00    0.00000E+00     0.00
    5.00   355.00      -6.48 -999.99   -6.48    0.00000     0.00  LINEAR    5.77641E-04   125.86    0.00000E+00     0.00
   10.00   355.00       0.10 -999.99    0.10    0.00000     0.00  LINEAR    1.23223E-03     3.19    0.00000E+00     0.00
   15.00   355.00       4.54 -999.99    4.54    0.00000     0.00  LINEAR    2.05449E-03  -111.80    0.00000E+00     0.00
   20.00   355.00       6.45 -999.99    6.45    0.00000     0.00  LINEAR    2.55878E-03   140.05    0.00000E+00     0.00
   25.00   355.00       7.06 -999.99    7.06    0.00000     0.00  LINEAR    2.74514E-03    34.22    0.00000E+00     0.00
   30.00   355.00       5.17 -999.99    5.17    0.00000     0.00  LINEAR    2.20816E-03   -73.49    0.00000E+00     0.00
   35.00   355.00       0.72 -999.99    0.72    0.00000     0.00  LINEAR    1.32342E-03  -174.17    0.00000E+00     0.00
   40.00   355.00     -30.51 -999.99  -30.51    0.00000     0.00  LINEAR    3.63066E-05   144.65    0.00000E+00     0.00
   45.00   355.00      -3.33 -999.99   -3.33    0.00000     0.00  LINEAR    8.30022E-04  -170.71    0.00000E+00     0.00
   50.00   355.00      -7.26 -999.99   -7.26    0.00000     0.00  LINEAR    5.28107E-04   107.29    0.00000E+00     0.00
   55.00   355.00      -5.41 -999.99   -5.41    0.00000     0.00  LINEAR    6.52887E-04  -132.84    0.00000E+00     0.00
   60.00   355.00       0.84 -999.99    0.84    0.00000     0.00  LINEAR    1.34102E-03   160.91    0.00000E+00     0.00
   65.00   355.00      -3.55 -999.99   -3.55    0.00000     0.00  LINEAR    8.09407E-04   108.10    0.00000E+00     0.00
   70.00   355.00      -9.76 -999.99   -9.76    0.00000     0.00  LINEAR    3.95800E-04  -138.54    0.00000E+00     0.00
   75.00   355.00      -6.33 -999.99   -6.33    0.00000     0.00  LINEAR    5.87382E-04  -168.33    0.00000E+00     0.00
   80.00   355.00      -7.36 -999.99   -7.36    0.00000     0.00  LINEAR    5.22040E-04     6.75    0.00000E+00     0.00
   85.00   355.00       0.25 -999.99    0.25    0.00000     0.00  LINEAR    1.25334E-03   -11.76    0.00000E+00     0.00
   90.00   355.00      -7.62 -999.99   -7.62    0.00000     0.00  LINEAR    5.06580E-04     7.49    0.00000E+00     0.00






 ***** DATA CARD NO. 16   EN   0     0     0     0  0.00000E+00  0.00000E+00  0.00000E+00  0.00000E+00  0.00000E+00  0.00000E+00

 RUN TIME =     0.234
