1



                                 *********************************************

                                    NUMERICAL ELECTROMAGNETICS CODE (NEC-2D)

                                 *********************************************




                                     - - - - COMMENTS - - - -


                                                                                                     
                                                                                                     




                                 - - - STRUCTURE SPECIFICATION - - -

                                     COORDINATES MUST BE INPUT IN
                                     METERS OR BE SCALED TO METERS
                                     BEFORE STRUCTURE INPUT IS ENDED


  WIRE                                                                               NO. OF    FIRST  LAST     TAG
  NO.        X1         Y1         Z1          X2         Y2         Z2      RADIUS   SEG.     SEG.   SEG.     NO.
     1   -7.50000   -5.00000   -5.00000    -7.50000   -5.00000    5.00000    0.00100     20        1    20     101
     2   -2.50000   -5.00000   -5.00000    -2.50000   -5.00000    5.00000    0.00100     20       21    40     102
     3    2.50000   -5.00000   -5.00000     2.50000   -5.00000    5.00000    0.00100     20       41    60     103
     4    7.50000   -5.00000   -5.00000     7.50000   -5.00000    5.00000    0.00100     20       61    80     104
     5   -7.50000    0.00000   -5.00000    -7.50000    0.00000    5.00000    0.00100     20       81   100     201
     6   -2.50000    0.00000   -5.00000    -2.50000    0.00000    5.00000    0.00100     20      101   120     202
     7    2.50000    0.00000   -5.00000     2.50000    0.00000    5.00000    0.00100     20      121   140     203
     8    7.50000    0.00000   -5.00000     7.50000    0.00000    5.00000    0.00100     20      141   160     204
     9   -7.50000    5.00000   -5.00000    -7.50000    5.00000    5.00000    0.00100     20      161   180     301
    10   -2.50000    5.00000   -5.00000    -2.50000    5.00000    5.00000    0.00100     20      181   200     302
    11    2.50000    5.00000   -5.00000     2.50000    5.00000    5.00000    0.00100     20      201   220     303
    12    7.50000    5.00000   -5.00000     7.50000    5.00000    5.00000    0.00100     20      221   240     304

   TOTAL SEGMENTS USED=  240     NO. SEG. IN A SYMMETRIC CELL=  240     SYMMETRY FLAG=  0


         - MULTIPLE WIRE JUNCTIONS -
 JUNCTION    SEGMENTS  (- FOR END 1, + FOR END 2)
  NONE




                                 - - - - SEGMENTATION DATA - - - -

                                        COORDINATES IN METERS

                         I+ AND I- INDICATE THE SEGMENTS BEFORE AND AFTER I


  SEG.   COORDINATES OF SEG. CENTER     SEG.     ORIENTATION ANGLES    WIRE    CONNECTION DATA   TAG
  NO.       X         Y         Z       LENGTH     ALPHA     BETA      RADIUS    I-   I    I+    NO.
     1  -7.50000  -5.00000  -4.75000   0.50000   90.00000   0.00000   0.00100     0    1    2    101
     2  -7.50000  -5.00000  -4.25000   0.50000   90.00000   0.00000   0.00100     1    2    3    101
     3  -7.50000  -5.00000  -3.75000   0.50000   90.00000   0.00000   0.00100     2    3    4    101
     4  -7.50000  -5.00000  -3.25000   0.50000   90.00000   0.00000   0.00100     3    4    5    101
     5  -7.50000  -5.00000  -2.75000   0.50000   90.00000   0.00000   0.00100     4    5    6    101
     6  -7.50000  -5.00000  -2.25000   0.50000   90.00000   0.00000   0.00100     5    6    7    101
     7  -7.50000  -5.00000  -1.75000   0.50000   90.00000   0.00000   0.00100     6    7    8    101
     8  -7.50000  -5.00000  -1.25000   0.50000   90.00000   0.00000   0.00100     7    8    9    101
     9  -7.50000  -5.00000  -0.75000   0.50000   90.00000   0.00000   0.00100     8    9   10    101
    10  -7.50000  -5.00000  -0.25000   0.50000   90.00000   0.00000   0.00100     9   10   11    101
    11  -7.50000  -5.00000   0.25000   0.50000   90.00000   0.00000   0.00100    10   11   12    101
    12  -7.50000  -5.00000   0.75000   0.50000   90.00000   0.00000   0.00100    11   12   13    101
    13  -7.50000  -5.00000   1.25000   0.50000   90.00000   0.00000   0.00100    12   13   14    101
    14  -7.50000  -5.00000   1.75000   0.50000   90.00000   0.00000   0.00100    13   14   15    101
    15  -7.50000  -5.00000   2.25000   0.50000   90.00000   0.00000   0.00100    14   15   16    101
    16  -7.50000  -5.00000   2.75000   0.50000   90.00000   0.00000   0.00100    15   16   17    101
    17  -7.50000  -5.00000   3.25000   0.50000   90.00000   0.00000   0.00100    16   17   18    101
    18  -7.50000  -5.00000   3.75000   0.50000   90.00000   0.00000   0.00100    17   18   19    101
    19  -7.50000  -5.00000   4.25000   0.50000   90.00000   0.00000   0.00100    18   19   20    101
    20  -7.50000  -5.00000   4.75000   0.50000   90.00000   0.00000   0.00100    19   20    0    101
    21  -2.50000  -5.00000  -4.75000   0.50000   90.00000   0.00000   0.00100     0   21   22    102
    22  -2.50000  -5.00000  -4.25000   0.50000   90.00000   0.00000   0.00100    21   22   23    102
    23  -2.50000  -5.00000  -3.75000   0.50000   90.00000   0.00000   0.00100    22   23   24    102
    24  -2.50000  -5.00000  -3.25000   0.50000   90.00000   0.00000   0.00100    23   24   25    102
    25  -2.50000  -5.00000  -2.75000   0.50000   90.00000   0.00000   0.00100    24   25   26    102
    26  -2.50000  -5.00000  -2.25000   0.50000   90.00000   0.00000   0.00100    25   26   27    102
    27  -2.50000  -5.00000  -1.75000   0.50000   90.00000   0.00000   0.00100    26   27   28    102
    28  -2.50000  -5.00000  -1.25000   0.50000   90.00000   0.00000   0.00100    27   28   29    102
    29  -2.50000  -5.00000  -0.75000   0.50000   90.00000   0.00000   0.00100    28   29   30    102
    30  -2.50000  -5.00000  -0.25000   0.50000   90.00000   0.00000   0.00100    29   30   31    102
    31  -2.50000  -5.00000   0.25000   0.50000   90.00000   0.00000   0.00100    30   31   32    102
    32  -2.50000  -5.00000   0.75000   0.50000   90.00000   0.00000   0.00100    31   32   33    102
    33  -2.50000  -5.00000   1.25000   0.50000   90.00000   0.00000   0.00100    32   33   34    102
    34  -2.50000  -5.00000   1.75000   0.50000   90.00000   0.00000   0.00100    33   34   35    102
    35  -2.50000  -5.00000   2.25000   0.50000   90.00000   0.00000   0.00100    34   35   36    102
    36  -2.50000  -5.00000   2.75000   0.50000   90.00000   0.00000   0.00100    35   36   37    102
    37  -2.50000  -5.00000   3.25000   0.50000   90.00000   0.00000   0.00100    36   37   38    102
    38  -2.50000  -5.00000   3.75000   0.50000   90.00000   0.00000   0.00100    37   38   39    102
    39  -2.50000  -5.00000   4.25000   0.50000   90.00000   0.00000   0.00100    38   39   40    102
    40  -2.50000  -5.00000   4.75000   0.50000   90.00000   0.00000   0.00100    39   40    0    102
    41   2.50000  -5.00000  -4.75000   0.50000   90.00000   0.00000   0.00100     0   41   42    103
    42   2.50000  -5.00000  -4.25000   0.50000   90.00000   0.00000   0.00100    41   42   43    103
    43   2.50000  -5.00000  -3.75000   0.50000   90.00000   0.00000   0.00100    42   43   44    103
    44   2.50000  -5.00000  -3.25000   0.50000   90.00000   0.00000   0.00100    43   44   45    103
    45   2.50000  -5.00000  -2.75000   0.50000   90.00000   0.00000   0.00100    44   45   46    103
    46   2.50000  -5.00000  -2.25000   0.50000   90.00000   0.00000   0.00100    45   46   47    103
    47   2.50000  -5.00000  -1.75000   0.50000   90.00000   0.00000   0.00100    46   47   48    103
    48   2.50000  -5.00000  -1.25000   0.50000   90.00000   0.00000   0.00100    47   48   49    103
    49   2.50000  -5.00000  -0.75000   0.50000   90.00000   0.00000   0.00100    48   49   50    103
    50   2.50000  -5.00000  -0.25000   0.50000   90.00000   0.00000   0.00100    49   50   51    103
    51   2.50000  -5.00000   0.25000   0.50000   90.00000   0.00000   0.00100    50   51   52    103
    52   2.50000  -5.00000   0.75000   0.50000   90.00000   0.00000   0.00100    51   52   53    103
    53   2.50000  -5.00000   1.25000   0.50000   90.00000   0.00000   0.00100    52   53   54    103
    54   2.50000  -5.00000   1.75000   0.50000   90.00000   0.00000   0.00100    53   54   55    103
    55   2.50000  -5.00000   2.25000   0.50000   90.00000   0.00000   0.00100    54   55   56    103
    56   2.50000  -5.00000   2.75000   0.50000   90.00000   0.00000   0.00100    55   56   57    103
    57   2.50000  -5.00000   3.25000   0.50000   90.00000   0.00000   0.00100    56   57   58    103
    58   2.50000  -5.00000   3.75000   0.50000   90.00000   0.00000   0.00100    57   58   59    103
    59   2.50000  -5.00000   4.25000   0.50000   90.00000   0.00000   0.00100    58   59   60    103
    60   2.50000  -5.00000   4.75000   0.50000   90.00000   0.00000   0.00100    59   60    0    103
    61   7.50000  -5.00000  -4.75000   0.50000   90.00000   0.00000   0.00100     0   61   62    104
    62   7.50000  -5.00000  -4.25000   0.50000   90.00000   0.00000   0.00100    61   62   63    104
    63   7.50000  -5.00000  -3.75000   0.50000   90.00000   0.00000   0.00100    62   63   64    104
    64   7.50000  -5.00000  -3.25000   0.50000   90.00000   0.00000   0.00100    63   64   65    104
    65   7.50000  -5.00000  -2.75000   0.50000   90.00000   0.00000   0.00100    64   65   66    104
    66   7.50000  -5.00000  -2.25000   0.50000   90.00000   0.00000   0.00100    65   66   67    104
    67   7.50000  -5.00000  -1.75000   0.50000   90.00000   0.00000   0.00100    66   67   68    104
    68   7.50000  -5.00000  -1.25000   0.50000   90.00000   0.00000   0.00100    67   68   69    104
    69   7.50000  -5.00000  -0.75000   0.50000   90.00000   0.00000   0.00100    68   69   70    104
    70   7.50000  -5.00000  -0.25000   0.50000   90.00000   0.00000   0.00100    69   70   71    104
    71   7.50000  -5.00000   0.25000   0.50000   90.00000   0.00000   0.00100    70   71   72    104
    72   7.50000  -5.00000   0.75000   0.50000   90.00000   0.00000   0.00100    71   72   73    104
    73   7.50000  -5.00000   1.25000   0.50000   90.00000   0.00000   0.00100    72   73   74    104
    74   7.50000  -5.00000   1.75000   0.50000   90.00000   0.00000   0.00100    73   74   75    104
    75   7.50000  -5.00000   2.25000   0.50000   90.00000   0.00000   0.00100    74   75   76    104
    76   7.50000  -5.00000   2.75000   0.50000   90.00000   0.00000   0.00100    75   76   77    104
    77   7.50000  -5.00000   3.25000   0.50000   90.00000   0.00000   0.00100    76   77   78    104
    78   7.50000  -5.00000   3.75000   0.50000   90.00000   0.00000   0.00100    77   78   79    104
    79   7.50000  -5.00000   4.25000   0.50000   90.00000   0.00000   0.00100    78   79   80    104
    80   7.50000  -5.00000   4.75000   0.50000   90.00000   0.00000   0.00100    79   80    0    104
    81  -7.50000   0.00000  -4.75000   0.50000   90.00000   0.00000   0.00100     0   81   82    201
    82  -7.50000   0.00000  -4.25000   0.50000   90.00000   0.00000   0.00100    81   82   83    201
    83  -7.50000   0.00000  -3.75000   0.50000   90.00000   0.00000   0.00100    82   83   84    201
    84  -7.50000   0.00000  -3.25000   0.50000   90.00000   0.00000   0.00100    83   84   85    201
    85  -7.50000   0.00000  -2.75000   0.50000   90.00000   0.00000   0.00100    84   85   86    201
    86  -7.50000   0.00000  -2.25000   0.50000   90.00000   0.00000   0.00100    85   86   87    201
    87  -7.50000   0.00000  -1.75000   0.50000   90.00000   0.00000   0.00100    86   87   88    201
    88  -7.50000   0.00000  -1.25000   0.50000   90.00000   0.00000   0.00100    87   88   89    201
    89  -7.50000   0.00000  -0.75000   0.50000   90.00000   0.00000   0.00100    88   89   90    201
    90  -7.50000   0.00000  -0.25000   0.50000   90.00000   0.00000   0.00100    89   90   91    201
    91  -7.50000   0.00000   0.25000   0.50000   90.00000   0.00000   0.00100    90   91   92    201
    92  -7.50000   0.00000   0.75000   0.50000   90.00000   0.00000   0.00100    91   92   93    201
    93  -7.50000   0.00000   1.25000   0.50000   90.00000   0.00000   0.00100    92   93   94    201
    94  -7.50000   0.00000   1.75000   0.50000   90.00000   0.00000   0.00100    93   94   95    201
    95  -7.50000   0.00000   2.25000   0.50000   90.00000   0.00000   0.00100    94   95   96    201
    96  -7.50000   0.00000   2.75000   0.50000   90.00000   0.00000   0.00100    95   96   97    201
    97  -7.50000   0.00000   3.25000   0.50000   90.00000   0.00000   0.00100    96   97   98    201
    98  -7.50000   0.00000   3.75000   0.50000   90.00000   0.00000   0.00100    97   98   99    201
    99  -7.50000   0.00000   4.25000   0.50000   90.00000   0.00000   0.00100    98   99  100    201
   100  -7.50000   0.00000   4.75000   0.50000   90.00000   0.00000   0.00100    99  100    0    201
   101  -2.50000   0.00000  -4.75000   0.50000   90.00000   0.00000   0.00100     0  101  102    202
   102  -2.50000   0.00000  -4.25000   0.50000   90.00000   0.00000   0.00100   101  102  103    202
   103  -2.50000   0.00000  -3.75000   0.50000   90.00000   0.00000   0.00100   102  103  104    202
   104  -2.50000   0.00000  -3.25000   0.50000   90.00000   0.00000   0.00100   103  104  105    202
   105  -2.50000   0.00000  -2.75000   0.50000   90.00000   0.00000   0.00100   104  105  106    202
   106  -2.50000   0.00000  -2.25000   0.50000   90.00000   0.00000   0.00100   105  106  107    202
   107  -2.50000   0.00000  -1.75000   0.50000   90.00000   0.00000   0.00100   106  107  108    202
   108  -2.50000   0.00000  -1.25000   0.50000   90.00000   0.00000   0.00100   107  108  109    202
   109  -2.50000   0.00000  -0.75000   0.50000   90.00000   0.00000   0.00100   108  109  110    202
   110  -2.50000   0.00000  -0.25000   0.50000   90.00000   0.00000   0.00100   109  110  111    202
   111  -2.50000   0.00000   0.25000   0.50000   90.00000   0.00000   0.00100   110  111  112    202
   112  -2.50000   0.00000   0.75000   0.50000   90.00000   0.00000   0.00100   111  112  113    202
   113  -2.50000   0.00000   1.25000   0.50000   90.00000   0.00000   0.00100   112  113  114    202
   114  -2.50000   0.00000   1.75000   0.50000   90.00000   0.00000   0.00100   113  114  115    202
   115  -2.50000   0.00000   2.25000   0.50000   90.00000   0.00000   0.00100   114  115  116    202
   116  -2.50000   0.00000   2.75000   0.50000   90.00000   0.00000   0.00100   115  116  117    202
   117  -2.50000   0.00000   3.25000   0.50000   90.00000   0.00000   0.00100   116  117  118    202
   118  -2.50000   0.00000   3.75000   0.50000   90.00000   0.00000   0.00100   117  118  119    202
   119  -2.50000   0.00000   4.25000   0.50000   90.00000   0.00000   0.00100   118  119  120    202
   120  -2.50000   0.00000   4.75000   0.50000   90.00000   0.00000   0.00100   119  120    0    202
   121   2.50000   0.00000  -4.75000   0.50000   90.00000   0.00000   0.00100     0  121  122    203
   122   2.50000   0.00000  -4.25000   0.50000   90.00000   0.00000   0.00100   121  122  123    203
   123   2.50000   0.00000  -3.75000   0.50000   90.00000   0.00000   0.00100   122  123  124    203
   124   2.50000   0.00000  -3.25000   0.50000   90.00000   0.00000   0.00100   123  124  125    203
   125   2.50000   0.00000  -2.75000   0.50000   90.00000   0.00000   0.00100   124  125  126    203
   126   2.50000   0.00000  -2.25000   0.50000   90.00000   0.00000   0.00100   125  126  127    203
   127   2.50000   0.00000  -1.75000   0.50000   90.00000   0.00000   0.00100   126  127  128    203
   128   2.50000   0.00000  -1.25000   0.50000   90.00000   0.00000   0.00100   127  128  129    203
   129   2.50000   0.00000  -0.75000   0.50000   90.00000   0.00000   0.00100   128  129  130    203
   130   2.50000   0.00000  -0.25000   0.50000   90.00000   0.00000   0.00100   129  130  131    203
   131   2.50000   0.00000   0.25000   0.50000   90.00000   0.00000   0.00100   130  131  132    203
   132   2.50000   0.00000   0.75000   0.50000   90.00000   0.00000   0.00100   131  132  133    203
   133   2.50000   0.00000   1.25000   0.50000   90.00000   0.00000   0.00100   132  133  134    203
   134   2.50000   0.00000   1.75000   0.50000   90.00000   0.00000   0.00100   133  134  135    203
   135   2.50000   0.00000   2.25000   0.50000   90.00000   0.00000   0.00100   134  135  136    203
   136   2.50000   0.00000   2.75000   0.50000   90.00000   0.00000   0.00100   135  136  137    203
   137   2.50000   0.00000   3.25000   0.50000   90.00000   0.00000   0.00100   136  137  138    203
   138   2.50000   0.00000   3.75000   0.50000   90.00000   0.00000   0.00100   137  138  139    203
   139   2.50000   0.00000   4.25000   0.50000   90.00000   0.00000   0.00100   138  139  140    203
   140   2.50000   0.00000   4.75000   0.50000   90.00000   0.00000   0.00100   139  140    0    203
   141   7.50000   0.00000  -4.75000   0.50000   90.00000   0.00000   0.00100     0  141  142    204
   142   7.50000   0.00000  -4.25000   0.50000   90.00000   0.00000   0.00100   141  142  143    204
   143   7.50000   0.00000  -3.75000   0.50000   90.00000   0.00000   0.00100   142  143  144    204
   144   7.50000   0.00000  -3.25000   0.50000   90.00000   0.00000   0.00100   143  144  145    204
   145   7.50000   0.00000  -2.75000   0.50000   90.00000   0.00000   0.00100   144  145  146    204
   146   7.50000   0.00000  -2.25000   0.50000   90.00000   0.00000   0.00100   145  146  147    204
   147   7.50000   0.00000  -1.75000   0.50000   90.00000   0.00000   0.00100   146  147  148    204
   148   7.50000   0.00000  -1.25000   0.50000   90.00000   0.00000   0.00100   147  148  149    204
   149   7.50000   0.00000  -0.75000   0.50000   90.00000   0.00000   0.00100   148  149  150    204
   150   7.50000   0.00000  -0.25000   0.50000   90.00000   0.00000   0.00100   149  150  151    204
   151   7.50000   0.00000   0.25000   0.50000   90.00000   0.00000   0.00100   150  151  152    204
   152   7.50000   0.00000   0.75000   0.50000   90.00000   0.00000   0.00100   151  152  153    204
   153   7.50000   0.00000   1.25000   0.50000   90.00000   0.00000   0.00100   152  153  154    204
   154   7.50000   0.00000   1.75000   0.50000   90.00000   0.00000   0.00100   153  154  155    204
   155   7.50000   0.00000   2.25000   0.50000   90.00000   0.00000   0.00100   154  155  156    204
   156   7.50000   0.00000   2.75000   0.50000   90.00000   0.00000   0.00100   155  156  157    204
   157   7.50000   0.00000   3.25000   0.50000   90.00000   0.00000   0.00100   156  157  158    204
   158   7.50000   0.00000   3.75000   0.50000   90.00000   0.00000   0.00100   157  158  159    204
   159   7.50000   0.00000   4.25000   0.50000   90.00000   0.00000   0.00100   158  159  160    204
   160   7.50000   0.00000   4.75000   0.50000   90.00000   0.00000   0.00100   159  160    0    204
   161  -7.50000   5.00000  -4.75000   0.50000   90.00000   0.00000   0.00100     0  161  162    301
   162  -7.50000   5.00000  -4.25000   0.50000   90.00000   0.00000   0.00100   161  162  163    301
   163  -7.50000   5.00000  -3.75000   0.50000   90.00000   0.00000   0.00100   162  163  164    301
   164  -7.50000   5.00000  -3.25000   0.50000   90.00000   0.00000   0.00100   163  164  165    301
   165  -7.50000   5.00000  -2.75000   0.50000   90.00000   0.00000   0.00100   164  165  166    301
   166  -7.50000   5.00000  -2.25000   0.50000   90.00000   0.00000   0.00100   165  166  167    301
   167  -7.50000   5.00000  -1.75000   0.50000   90.00000   0.00000   0.00100   166  167  168    301
   168  -7.50000   5.00000  -1.25000   0.50000   90.00000   0.00000   0.00100   167  168  169    301
   169  -7.50000   5.00000  -0.75000   0.50000   90.00000   0.00000   0.00100   168  169  170    301
   170  -7.50000   5.00000  -0.25000   0.50000   90.00000   0.00000   0.00100   169  170  171    301
   171  -7.50000   5.00000   0.25000   0.50000   90.00000   0.00000   0.00100   170  171  172    301
   172  -7.50000   5.00000   0.75000   0.50000   90.00000   0.00000   0.00100   171  172  173    301
   173  -7.50000   5.00000   1.25000   0.50000   90.00000   0.00000   0.00100   172  173  174    301
   174  -7.50000   5.00000   1.75000   0.50000   90.00000   0.00000   0.00100   173  174  175    301
   175  -7.50000   5.00000   2.25000   0.50000   90.00000   0.00000   0.00100   174  175  176    301
   176  -7.50000   5.00000   2.75000   0.50000   90.00000   0.00000   0.00100   175  176  177    301
   177  -7.50000   5.00000   3.25000   0.50000   90.00000   0.00000   0.00100   176  177  178    301
   178  -7.50000   5.00000   3.75000   0.50000   90.00000   0.00000   0.00100   177  178  179    301
   179  -7.50000   5.00000   4.25000   0.50000   90.00000   0.00000   0.00100   178  179  180    301
   180  -7.50000   5.00000   4.75000   0.50000   90.00000   0.00000   0.00100   179  180    0    301
   181  -2.50000   5.00000  -4.75000   0.50000   90.00000   0.00000   0.00100     0  181  182    302
   182  -2.50000   5.00000  -4.25000   0.50000   90.00000   0.00000   0.00100   181  182  183    302
   183  -2.50000   5.00000  -3.75000   0.50000   90.00000   0.00000   0.00100   182  183  184    302
   184  -2.50000   5.00000  -3.25000   0.50000   90.00000   0.00000   0.00100   183  184  185    302
   185  -2.50000   5.00000  -2.75000   0.50000   90.00000   0.00000   0.00100   184  185  186    302
   186  -2.50000   5.00000  -2.25000   0.50000   90.00000   0.00000   0.00100   185  186  187    302
   187  -2.50000   5.00000  -1.75000   0.50000   90.00000   0.00000   0.00100   186  187  188    302
   188  -2.50000   5.00000  -1.25000   0.50000   90.00000   0.00000   0.00100   187  188  189    302
   189  -2.50000   5.00000  -0.75000   0.50000   90.00000   0.00000   0.00100   188  189  190    302
   190  -2.50000   5.00000  -0.25000   0.50000   90.00000   0.00000   0.00100   189  190  191    302
   191  -2.50000   5.00000   0.25000   0.50000   90.00000   0.00000   0.00100   190  191  192    302
   192  -2.50000   5.00000   0.75000   0.50000   90.00000   0.00000   0.00100   191  192  193    302
   193  -2.50000   5.00000   1.25000   0.50000   90.00000   0.00000   0.00100   192  193  194    302
   194  -2.50000   5.00000   1.75000   0.50000   90.00000   0.00000   0.00100   193  194  195    302
   195  -2.50000   5.00000   2.25000   0.50000   90.00000   0.00000   0.00100   194  195  196    302
   196  -2.50000   5.00000   2.75000   0.50000   90.00000   0.00000   0.00100   195  196  197    302
   197  -2.50000   5.00000   3.25000   0.50000   90.00000   0.00000   0.00100   196  197  198    302
   198  -2.50000   5.00000   3.75000   0.50000   90.00000   0.00000   0.00100   197  198  199    302
   199  -2.50000   5.00000   4.25000   0.50000   90.00000   0.00000   0.00100   198  199  200    302
   200  -2.50000   5.00000   4.75000   0.50000   90.00000   0.00000   0.00100   199  200    0    302
   201   2.50000   5.00000  -4.75000   0.50000   90.00000   0.00000   0.00100     0  201  202    303
   202   2.50000   5.00000  -4.25000   0.50000   90.00000   0.00000   0.00100   201  202  203    303
   203   2.50000   5.00000  -3.75000   0.50000   90.00000   0.00000   0.00100   202  203  204    303
   204   2.50000   5.00000  -3.25000   0.50000   90.00000   0.00000   0.00100   203  204  205    303
   205   2.50000   5.00000  -2.75000   0.50000   90.00000   0.00000   0.00100   204  205  206    303
   206   2.50000   5.00000  -2.25000   0.50000   90.00000   0.00000   0.00100   205  206  207    303
   207   2.50000   5.00000  -1.75000   0.50000   90.00000   0.00000   0.00100   206  207  208    303
   208   2.50000   5.00000  -1.25000   0.50000   90.00000   0.00000   0.00100   207  208  209    303
   209   2.50000   5.00000  -0.75000   0.50000   90.00000   0.00000   0.00100   208  209  210    303
   210   2.50000   5.00000  -0.25000   0.50000   90.00000   0.00000   0.00100   209  210  211    303
   211   2.50000   5.00000   0.25000   0.50000   90.00000   0.00000   0.00100   210  211  212    303
   212   2.50000   5.00000   0.75000   0.50000   90.00000   0.00000   0.00100   211  212  213    303
   213   2.50000   5.00000   1.25000   0.50000   90.00000   0.00000   0.00100   212  213  214    303
   214   2.50000   5.00000   1.75000   0.50000   90.00000   0.00000   0.00100   213  214  215    303
   215   2.50000   5.00000   2.25000   0.50000   90.00000   0.00000   0.00100   214  215  216    303
   216   2.50000   5.00000   2.75000   0.50000   90.00000   0.00000   0.00100   215  216  217    303
   217   2.50000   5.00000   3.25000   0.50000   90.00000   0.00000   0.00100   216  217  218    303
   218   2.50000   5.00000   3.75000   0.50000   90.00000   0.00000   0.00100   217  218  219    303
   219   2.50000   5.00000   4.25000   0.50000   90.00000   0.00000   0.00100   218  219  220    303
   220   2.50000   5.00000   4.75000   0.50000   90.00000   0.00000   0.00100   219  220    0    303
   221   7.50000   5.00000  -4.75000   0.50000   90.00000   0.00000   0.00100     0  221  222    304
   222   7.50000   5.00000  -4.25000   0.50000   90.00000   0.00000   0.00100   221  222  223    304
   223   7.50000   5.00000  -3.75000   0.50000   90.00000   0.00000   0.00100   222  223  224    304
   224   7.50000   5.00000  -3.25000   0.50000   90.00000   0.00000   0.00100   223  224  225    304
   225   7.50000   5.00000  -2.75000   0.50000   90.00000   0.00000   0.00100   224  225  226    304
   226   7.50000   5.00000  -2.25000   0.50000   90.00000   0.00000   0.00100   225  226  227    304
   227   7.50000   5.00000  -1.75000   0.50000   90.00000   0.00000   0.00100   226  227  228    304
   228   7.50000   5.00000  -1.25000   0.50000   90.00000   0.00000   0.00100   227  228  229    304
   229   7.50000   5.00000  -0.75000   0.50000   90.00000   0.00000   0.00100   228  229  230    304
   230   7.50000   5.00000  -0.25000   0.50000   90.00000   0.00000   0.00100   229  230  231    304
   231   7.50000   5.00000   0.25000   0.50000   90.00000   0.00000   0.00100   230  231  232    304
   232   7.50000   5.00000   0.75000   0.50000   90.00000   0.00000   0.00100   231  232  233    304
   233   7.50000   5.00000   1.25000   0.50000   90.00000   0.00000   0.00100   232  233  234    304
   234   7.50000   5.00000   1.75000   0.50000   90.00000   0.00000   0.00100   233  234  235    304
   235   7.50000   5.00000   2.25000   0.50000   90.00000   0.00000   0.00100   234  235  236    304
   236   7.50000   5.00000   2.75000   0.50000   90.00000   0.00000   0.00100   235  236  237    304
   237   7.50000   5.00000   3.25000   0.50000   90.00000   0.00000   0.00100   236  237  238    304
   238   7.50000   5.00000   3.75000   0.50000   90.00000   0.00000   0.00100   237  238  239    304
   239   7.50000   5.00000   4.25000   0.50000   90.00000   0.00000   0.00100   238  239  240    304
   240   7.50000   5.00000   4.75000   0.50000   90.00000   0.00000   0.00100   239  240    0    304






 ***** DATA CARD NO.  1   GN  -1     0     0     0  1.00000E+01  1.00000E-02  0.00000E+00  0.00000E+00  0.00000E+00  0.00000E+00
 ***** DATA CARD NO.  2   FR   0     0     0     0  1.50000E+02  0.00000E+00  0.00000E+00  0.00000E+00  0.00000E+00  0.00000E+00
 ***** DATA CARD NO.  3   EX   0   101    10     0  1.00000E-09  0.00000E+00  0.00000E+00  0.00000E+00  0.00000E+00  0.00000E+00
 ***** DATA CARD NO.  4   EX   0   102    10     0  1.00000E-09  0.00000E+00  0.00000E+00  0.00000E+00  0.00000E+00  0.00000E+00
 ***** DATA CARD NO.  5   EX   0   103    10     0  1.00000E-09  0.00000E+00  0.00000E+00  0.00000E+00  0.00000E+00  0.00000E+00
 ***** DATA CARD NO.  6   EX   0   104    10     0  1.00000E-09  0.00000E+00  0.00000E+00  0.00000E+00  0.00000E+00  0.00000E+00
 ***** DATA CARD NO.  7   EX   0   201    10     0  1.00000E-09  0.00000E+00  0.00000E+00  0.00000E+00  0.00000E+00  0.00000E+00
 ***** DATA CARD NO.  8   EX   0   202    10     0  1.00000E-09  0.00000E+00  0.00000E+00  0.00000E+00  0.00000E+00  0.00000E+00
 ***** DATA CARD NO.  9   EX   0   203    10     0  2.66750E-03 -3.56960E-03  0.00000E+00  0.00000E+00  0.00000E+00  0.00000E+00
 ***** DATA CARD NO. 10   EX   0   204    10     0  1.00000E-09  0.00000E+00  0.00000E+00  0.00000E+00  0.00000E+00  0.00000E+00
 ***** DATA CARD NO. 11   EX   0   301    10     0  1.00000E-09  0.00000E+00  0.00000E+00  0.00000E+00  0.00000E+00  0.00000E+00
 ***** DATA CARD NO. 12   EX   0   302    10     0  1.00000E-09  0.00000E+00  0.00000E+00  0.00000E+00  0.00000E+00  0.00000E+00
 ***** DATA CARD NO. 13   EX   0   303    10     0  1.00000E-09  0.00000E+00  0.00000E+00  0.00000E+00  0.00000E+00  0.00000E+00
 ***** DATA CARD NO. 14   EX   0   304    10     0  1.00000E-09  0.00000E+00  0.00000E+00  0.00000E+00  0.00000E+00  0.00000E+00
 ***** DATA CARD NO. 15   RP   0    19    72  1010  0.00000E+00  0.00000E+00  5.00000E+00  5.00000E+00  0.00000E+00  0.00000E+00




                                 - - - - - - FREQUENCY - - - - - -

                                    FREQUENCY= 1.5000E+02 MHZ
                                    WAVELENGTH= 1.9987E+00 METERS




                    APPROXIMATE INTEGRATION EMPLOYED FOR SEGMENTS MORE THAN   1.000 WAVELENGTHS APART



                               - - - STRUCTURE IMPEDANCE LOADING - - -

                                   THIS STRUCTURE IS NOT LOADED



                                  - - - ANTENNA ENVIRONMENT - - -

                                            FREE SPACE



                                - - - MATRIX TIMING - - -

                        FILL=    0.031 SEC.,  FACTOR=    0.031 SEC.



                                          - - - ANTENNA INPUT PARAMETERS - - -

   TAG   SEG.    VOLTAGE (VOLTS)         CURRENT (AMPS)         IMPEDANCE (OHMS)        ADMITTANCE (MHOS)      POWER
   NO.   NO.    REAL        IMAG.       REAL        IMAG.       REAL        IMAG.       REAL        IMAG.     (WATTS)
   101    10 1.00000E-09 0.00000E+00-1.06905E-07-5.95883E-08-7.13679E-03 3.97802E-03-1.06905E+02-5.95883E+01-5.34524E-17
   102    30 1.00000E-09 0.00000E+00 3.95376E-07-1.87468E-07 2.06499E-03 9.79114E-04 3.95376E+02-1.87468E+02 1.97688E-16
   103    50 1.00000E-09 0.00000E+00 8.15732E-09 1.58046E-07 3.25707E-04-6.31047E-03 8.15732E+00 1.58046E+02 4.07866E-18
   104    70 1.00000E-09 0.00000E+00 3.83620E-07-1.93123E-07 2.07968E-03 1.04696E-03 3.83620E+02-1.93123E+02 1.91810E-16
   201    90 1.00000E-09 0.00000E+00 1.04920E-07-8.53020E-08 5.73815E-03 4.66522E-03 1.04920E+02-8.53020E+01 5.24601E-17
   202   110 1.00000E-09 0.00000E+00 1.33535E-08 1.60015E-07 5.17917E-04-6.20620E-03 1.33535E+01 1.60015E+02 6.67674E-18
   203   130 2.66750E-03-3.56960E-03 3.02653E-06-1.42390E-05 2.77953E+02 1.28258E+02 2.96616E-03-1.36870E-03 2.94504E-08
   204   150 1.00000E-09 0.00000E+00 1.54785E-08 1.67079E-07 5.49761E-04-5.93427E-03 1.54785E+01 1.67079E+02 7.73923E-18
   301   170 1.00000E-09 0.00000E+00-1.06905E-07-5.95883E-08-7.13679E-03 3.97802E-03-1.06905E+02-5.95883E+01-5.34524E-17
   302   190 1.00000E-09 0.00000E+00 3.95376E-07-1.87468E-07 2.06499E-03 9.79114E-04 3.95376E+02-1.87468E+02 1.97688E-16
   303   210 1.00000E-09 0.00000E+00 8.15732E-09 1.58046E-07 3.25707E-04-6.31047E-03 8.15732E+00 1.58046E+02 4.07866E-18
   304   230 1.00000E-09 0.00000E+00 3.83620E-07-1.93123E-07 2.07968E-03 1.04696E-03 3.83620E+02-1.93123E+02 1.91810E-16



                             - - - CURRENTS AND LOCATION - - -

                                 DISTANCES IN WAVELENGTHS


  SEG.  TAG    COORD. OF SEG. CENTER     SEG.            - - - CURRENT (AMPS) - - -
  NO.   NO.     X        Y        Z      LENGTH     REAL        IMAG.       MAG.        PHASE
     1  101  -3.7525  -2.5017  -2.3766  0.25017  -1.1978E-07 -7.6917E-08  1.4235E-07 -147.292
     2  101  -3.7525  -2.5017  -2.1264  0.25017  -1.1615E-07 -1.1401E-07  1.6276E-07 -135.533
     3  101  -3.7525  -2.5017  -1.8763  0.25017   8.6603E-08 -8.4537E-09  8.7015E-08   -5.575
     4  101  -3.7525  -2.5017  -1.6261  0.25017   8.4854E-08  2.1066E-08  8.7430E-08   13.943
     5  101  -3.7525  -2.5017  -1.3759  0.25017  -1.1383E-07 -5.2569E-08  1.2538E-07 -155.211
     6  101  -3.7525  -2.5017  -1.1258  0.25017  -1.4836E-07 -3.0632E-08  1.5149E-07 -168.334
     7  101  -3.7525  -2.5017  -0.8756  0.25017  -1.9789E-08  8.7043E-08  8.9264E-08  102.808
     8  101  -3.7525  -2.5017  -0.6254  0.25017  -4.5124E-08  8.5055E-08  9.6283E-08  117.947
     9  101  -3.7525  -2.5017  -0.3753  0.25017  -1.8257E-07 -3.8652E-08  1.8662E-07 -168.046
    10  101  -3.7525  -2.5017  -0.1251  0.25017  -1.0690E-07 -5.9588E-08  1.2239E-07 -150.865
    11  101  -3.7525  -2.5017   0.1251  0.25017   1.1760E-07  3.4610E-08  1.2259E-07   16.399
    12  101  -3.7525  -2.5017   0.3753  0.25017   1.3118E-07  2.4344E-08  1.3342E-07   10.513
    13  101  -3.7525  -2.5017   0.6254  0.25017  -3.3790E-08 -9.7636E-08  1.0332E-07 -109.090
    14  101  -3.7525  -2.5017   0.8756  0.25017  -3.9325E-08 -9.7768E-08  1.0538E-07 -111.912
    15  101  -3.7525  -2.5017   1.1258  0.25017   8.0150E-08  4.8565E-08  9.3716E-08   31.212
    16  101  -3.7525  -2.5017   1.3759  0.25017   1.4677E-08  1.1233E-07  1.1328E-07   82.556
    17  101  -3.7525  -2.5017   1.6261  0.25017  -1.5045E-07  5.1946E-08  1.5917E-07  160.952
    18  101  -3.7525  -2.5017   1.8763  0.25017  -6.7265E-08  6.2740E-08  9.1983E-08  136.993
    19  101  -3.7525  -2.5017   2.1264  0.25017   1.6480E-07  1.4857E-07  2.2188E-07   42.035
    20  101  -3.7525  -2.5017   2.3766  0.25017   1.3169E-07  9.3527E-08  1.6152E-07   35.383
    21  102  -1.2508  -2.5017  -2.3766  0.25017   5.1696E-07 -1.9585E-07  5.5281E-07  -20.749
    22  102  -1.2508  -2.5017  -2.1264  0.25017   5.5338E-07 -2.3193E-07  6.0002E-07  -22.740
    23  102  -1.2508  -2.5017  -1.8763  0.25017  -4.0778E-07  1.6181E-07  4.3871E-07  158.357
    24  102  -1.2508  -2.5017  -1.6261  0.25017  -5.7132E-07  2.1649E-07  6.1096E-07  159.246
    25  102  -1.2508  -2.5017  -1.3759  0.25017   2.2520E-07 -1.9591E-07  2.9848E-07  -41.021
    26  102  -1.2508  -2.5017  -1.1258  0.25017   3.2776E-07 -2.8160E-07  4.3212E-07  -40.668
    27  102  -1.2508  -2.5017  -0.8756  0.25017  -4.2998E-07  1.4398E-07  4.5345E-07  161.487
    28  102  -1.2508  -2.5017  -0.6254  0.25017  -4.7276E-07  3.1015E-07  5.6542E-07  146.733
    29  102  -1.2508  -2.5017  -0.3753  0.25017   3.2412E-07 -2.3342E-08  3.2496E-07   -4.119
    30  102  -1.2508  -2.5017  -0.1251  0.25017   3.9538E-07 -1.8747E-07  4.3757E-07  -25.368
    31  102  -1.2508  -2.5017   0.1251  0.25017  -3.7477E-07  1.6824E-08  3.7515E-07  177.430
    32  102  -1.2508  -2.5017   0.3753  0.25017  -4.3483E-07  7.7391E-09  4.3490E-07  178.980
    33  102  -1.2508  -2.5017   0.6254  0.25017   3.2129E-07 -2.6731E-07  4.1795E-07  -39.759
    34  102  -1.2508  -2.5017   0.8756  0.25017   3.6239E-07 -1.6595E-07  3.9858E-07  -24.604
    35  102  -1.2508  -2.5017   1.1258  0.25017  -3.7735E-07  2.8413E-07  4.7236E-07  143.021
    36  102  -1.2508  -2.5017   1.3759  0.25017  -3.5107E-07  3.1356E-07  4.7072E-07  138.230
    37  102  -1.2508  -2.5017   1.6261  0.25017   4.6118E-07 -1.0147E-07  4.7221E-07  -12.409
    38  102  -1.2508  -2.5017   1.8763  0.25017   4.3892E-07 -1.5307E-07  4.6484E-07  -19.225
    39  102  -1.2508  -2.5017   2.1264  0.25017  -4.4485E-07  2.3025E-07  5.0091E-07  152.634
    40  102  -1.2508  -2.5017   2.3766  0.25017  -4.7127E-07  2.3318E-07  5.2580E-07  153.674
    41  103   1.2508  -2.5017  -2.3766  0.25017  -2.1997E-08  1.9833E-07  1.9954E-07   96.329
    42  103   1.2508  -2.5017  -2.1264  0.25017   2.3480E-09 -4.1009E-09  4.7255E-09  -60.207
    43  103   1.2508  -2.5017  -1.8763  0.25017   1.0092E-07 -4.5118E-07  4.6233E-07  -77.392
    44  103   1.2508  -2.5017  -1.6261  0.25017   9.4707E-08 -1.8569E-07  2.0845E-07  -62.977
    45  103   1.2508  -2.5017  -1.3759  0.25017  -1.2062E-07  3.9064E-07  4.0884E-07  107.160
    46  103   1.2508  -2.5017  -1.1258  0.25017  -3.2873E-07  2.3877E-07  4.0629E-07  144.007
    47  103   1.2508  -2.5017  -0.8756  0.25017  -2.3974E-07 -3.1710E-07  3.9753E-07 -127.090
    48  103   1.2508  -2.5017  -0.6254  0.25017   5.7197E-08 -2.0935E-07  2.1702E-07  -74.719
    49  103   1.2508  -2.5017  -0.3753  0.25017   1.8135E-07  3.0354E-07  3.5359E-07   59.144
    50  103   1.2508  -2.5017  -0.1251  0.25017   8.1573E-09  1.5805E-07  1.5826E-07   87.045
    51  103   1.2508  -2.5017   0.1251  0.25017  -1.8733E-07 -4.1139E-07  4.5204E-07 -114.483
    52  103   1.2508  -2.5017   0.3753  0.25017  -1.7516E-07 -3.1319E-07  3.5884E-07 -119.218
    53  103   1.2508  -2.5017   0.6254  0.25017  -3.6508E-08  2.6787E-07  2.7035E-07   97.761
    54  103   1.2508  -2.5017   0.8756  0.25017   7.1287E-08  2.2897E-07  2.3981E-07   72.707
    55  103   1.2508  -2.5017   1.1258  0.25017   1.0607E-07 -2.9205E-07  3.1072E-07  -70.040
    56  103   1.2508  -2.5017   1.3759  0.25017   5.4049E-08 -1.8601E-07  1.9370E-07  -73.798
    57  103   1.2508  -2.5017   1.6261  0.25017  -5.7509E-08  4.4364E-07  4.4736E-07   97.386
    58  103   1.2508  -2.5017   1.8763  0.25017  -7.5421E-08  4.3956E-07  4.4598E-07   99.736
    59  103   1.2508  -2.5017   2.1264  0.25017   5.5057E-08 -1.9875E-07  2.0623E-07  -74.516
    60  103   1.2508  -2.5017   2.3766  0.25017   9.0652E-08 -2.9219E-07  3.0593E-07  -72.763
    61  104   3.7525  -2.5017  -2.3766  0.25017   5.0392E-07 -2.0050E-07  5.4234E-07  -21.696
    62  104   3.7525  -2.5017  -2.1264  0.25017   5.3895E-07 -2.3820E-07  5.8924E-07  -23.844
    63  104   3.7525  -2.5017  -1.8763  0.25017  -3.9677E-07  1.6159E-07  4.2841E-07  157.841
    64  104   3.7525  -2.5017  -1.6261  0.25017  -5.5529E-07  2.1724E-07  5.9627E-07  158.634
    65  104   3.7525  -2.5017  -1.3759  0.25017   2.2008E-07 -2.0138E-07  2.9831E-07  -42.459
    66  104   3.7525  -2.5017  -1.1258  0.25017   3.2063E-07 -2.8901E-07  4.3166E-07  -42.031
    67  104   3.7525  -2.5017  -0.8756  0.25017  -4.1458E-07  1.4196E-07  4.3821E-07  161.098
    68  104   3.7525  -2.5017  -0.6254  0.25017  -4.5548E-07  3.1033E-07  5.5115E-07  145.732
    69  104   3.7525  -2.5017  -0.3753  0.25017   3.1715E-07 -2.7653E-08  3.1836E-07   -4.983
    70  104   3.7525  -2.5017  -0.1251  0.25017   3.8362E-07 -1.9312E-07  4.2949E-07  -26.722
    71  104   3.7525  -2.5017   0.1251  0.25017  -3.6580E-07  1.6624E-08  3.6618E-07  177.398
    72  104   3.7525  -2.5017   0.3753  0.25017  -4.2472E-07  1.0188E-08  4.2484E-07  178.626
    73  104   3.7525  -2.5017   0.6254  0.25017   3.0716E-07 -2.6895E-07  4.0826E-07  -41.205
    74  104   3.7525  -2.5017   0.8756  0.25017   3.4431E-07 -1.6915E-07  3.8361E-07  -26.163
    75  104   3.7525  -2.5017   1.1258  0.25017  -3.7274E-07  2.8565E-07  4.6961E-07  142.535
    76  104   3.7525  -2.5017   1.3759  0.25017  -3.4276E-07  3.1631E-07  4.6641E-07  137.298
    77  104   3.7525  -2.5017   1.6261  0.25017   4.4769E-07 -1.0494E-07  4.5983E-07  -13.192
    78  104   3.7525  -2.5017   1.8763  0.25017   4.2384E-07 -1.5944E-07  4.5283E-07  -20.616
    79  104   3.7525  -2.5017   2.1264  0.25017  -4.3516E-07  2.2953E-07  4.9198E-07  152.190
    80  104   3.7525  -2.5017   2.3766  0.25017  -4.5836E-07  2.3560E-07  5.1537E-07  152.797
    81  201  -3.7525   0.0000  -2.3766  0.25017   1.3776E-07 -1.2460E-07  1.8575E-07  -42.127
    82  201  -3.7525   0.0000  -2.1264  0.25017   1.4349E-07 -8.5075E-08  1.6682E-07  -30.663
    83  201  -3.7525   0.0000  -1.8763  0.25017  -8.4453E-08  1.9498E-07  2.1249E-07  113.419
    84  201  -3.7525   0.0000  -1.6261  0.25017  -1.0743E-07  1.9762E-07  2.2493E-07  118.528
    85  201  -3.7525   0.0000  -1.3759  0.25017   8.7114E-08 -6.9226E-08  1.1127E-07  -38.473
    86  201  -3.7525   0.0000  -1.1258  0.25017   1.1267E-07 -1.0002E-07  1.5066E-07  -41.594
    87  201  -3.7525   0.0000  -0.8756  0.25017  -4.5009E-08  1.2589E-07  1.3369E-07  109.674
    88  201  -3.7525   0.0000  -0.6254  0.25017  -3.1195E-08  1.3466E-07  1.3823E-07  103.043
    89  201  -3.7525   0.0000  -0.3753  0.25017   1.4097E-07 -8.7982E-08  1.6618E-07  -31.968
    90  201  -3.7525   0.0000  -0.1251  0.25017   1.0492E-07 -8.5302E-08  1.3522E-07  -39.112
    91  201  -3.7525   0.0000   0.1251  0.25017  -1.1988E-07  1.4128E-07  1.8529E-07  130.316
    92  201  -3.7525   0.0000   0.3753  0.25017  -1.4009E-07  1.3784E-07  1.9653E-07  135.465
    93  201  -3.7525   0.0000   0.6254  0.25017   5.8994E-08 -8.3716E-08  1.0241E-07  -54.828
    94  201  -3.7525   0.0000   0.8756  0.25017   1.0091E-07 -7.4714E-08  1.2556E-07  -36.517
    95  201  -3.7525   0.0000   1.1258  0.25017  -4.0298E-08  1.2894E-07  1.3509E-07  107.355
    96  201  -3.7525   0.0000   1.3759  0.25017  -1.8838E-08  6.2503E-08  6.5280E-08  106.772
    97  201  -3.7525   0.0000   1.6261  0.25017   1.5355E-07 -2.1928E-07  2.6769E-07  -54.998
    98  201  -3.7525   0.0000   1.8763  0.25017   1.0455E-07 -2.0461E-07  2.2977E-07  -62.934
    99  201  -3.7525   0.0000   2.1264  0.25017  -1.3894E-07  8.6430E-08  1.6363E-07  148.116
   100  201  -3.7525   0.0000   2.3766  0.25017  -1.3703E-07  1.2408E-07  1.8486E-07  137.839
   101  202  -1.2508   0.0000  -2.3766  0.25017  -1.6267E-08  1.9319E-07  1.9387E-07   94.813
   102  202  -1.2508   0.0000  -2.1264  0.25017   8.0933E-09 -5.4450E-09  9.7545E-09  -33.932
   103  202  -1.2508   0.0000  -1.8763  0.25017   9.1792E-08 -4.3998E-07  4.4945E-07  -78.215
   104  202  -1.2508   0.0000  -1.6261  0.25017   7.8895E-08 -1.7685E-07  1.9365E-07  -65.958
   105  202  -1.2508   0.0000  -1.3759  0.25017  -1.2964E-07  3.8740E-07  4.0852E-07  108.502
   106  202  -1.2508   0.0000  -1.1258  0.25017  -3.3761E-07  2.3582E-07  4.1182E-07  145.065
   107  202  -1.2508   0.0000  -0.8756  0.25017  -2.5677E-07 -3.1140E-07  4.0361E-07 -129.508
   108  202  -1.2508   0.0000  -0.6254  0.25017   4.4942E-08 -2.0527E-07  2.1014E-07  -77.651
   109  202  -1.2508   0.0000  -0.3753  0.25017   1.8521E-07  3.0109E-07  3.5349E-07   58.402
   110  202  -1.2508   0.0000  -0.1251  0.25017   1.3353E-08  1.6001E-07  1.6057E-07   85.230
   111  202  -1.2508   0.0000   0.1251  0.25017  -1.9610E-07 -4.0268E-07  4.4789E-07 -115.965
   112  202  -1.2508   0.0000   0.3753  0.25017  -1.8465E-07 -3.1063E-07  3.6137E-07 -120.729
   113  202  -1.2508   0.0000   0.6254  0.25017  -2.8926E-08  2.6329E-07  2.6487E-07   96.270
   114  202  -1.2508   0.0000   0.8756  0.25017   8.6642E-08  2.3252E-07  2.4814E-07   69.563
   115  202  -1.2508   0.0000   1.1258  0.25017   1.1256E-07 -2.7975E-07  3.0155E-07  -68.082
   116  202  -1.2508   0.0000   1.3759  0.25017   5.7532E-08 -1.8295E-07  1.9178E-07  -72.543
   117  202  -1.2508   0.0000   1.6261  0.25017  -4.6482E-08  4.3568E-07  4.3815E-07   96.090
   118  202  -1.2508   0.0000   1.8763  0.25017  -6.7497E-08  4.4053E-07  4.4567E-07   98.711
   119  202  -1.2508   0.0000   2.1264  0.25017   4.8465E-08 -1.8463E-07  1.9089E-07  -75.292
   120  202  -1.2508   0.0000   2.3766  0.25017   8.3230E-08 -2.8470E-07  2.9661E-07  -73.704
   121  203   1.2508   0.0000  -2.3766  0.25017   1.0409E-06 -1.4863E-05  1.4899E-05  -85.994
   122  203   1.2508   0.0000  -2.1264  0.25017   2.7820E-06 -1.2826E-05  1.3124E-05  -77.762
   123  203   1.2508   0.0000  -1.8763  0.25017   2.1428E-08  1.4976E-05  1.4976E-05   89.918
   124  203   1.2508   0.0000  -1.6261  0.25017  -3.1410E-06  1.2460E-05  1.2850E-05  104.148
   125  203   1.2508   0.0000  -1.3759  0.25017  -4.2362E-07 -1.5010E-05  1.5016E-05  -91.617
   126  203   1.2508   0.0000  -1.1258  0.25017   3.3951E-06 -1.2339E-05  1.2798E-05  -74.615
   127  203   1.2508   0.0000  -0.8756  0.25017   6.2706E-07  1.5115E-05  1.5128E-05   87.624
   128  203   1.2508   0.0000  -0.6254  0.25017  -3.8684E-06  1.2311E-05  1.2905E-05  107.444
   129  203   1.2508   0.0000  -0.3753  0.25017  -9.8877E-07 -1.5452E-05  1.5483E-05  -93.661
   130  203   1.2508   0.0000  -0.1251  0.25017   3.0265E-06 -1.4239E-05  1.4557E-05  -78.000
   131  203   1.2508   0.0000   0.1251  0.25017  -6.4984E-06  7.8441E-06  1.0186E-05  129.640
   132  203   1.2508   0.0000   0.3753  0.25017  -4.0177E-06  1.2066E-05  1.2718E-05  108.416
   133  203   1.2508   0.0000   0.6254  0.25017   6.3917E-06 -8.3043E-06  1.0479E-05  -52.415
   134  203   1.2508   0.0000   0.8756  0.25017   4.0471E-06 -1.1917E-05  1.2585E-05  -71.242
   135  203   1.2508   0.0000   1.1258  0.25017  -6.1940E-06  8.5622E-06  1.0568E-05  125.882
   136  203   1.2508   0.0000   1.3759  0.25017  -4.1629E-06  1.1840E-05  1.2550E-05  109.372
   137  203   1.2508   0.0000   1.6261  0.25017   6.0116E-06 -8.7619E-06  1.0626E-05  -55.545
   138  203   1.2508   0.0000   1.8763  0.25017   4.3834E-06 -1.1670E-05  1.2466E-05  -69.414
   139  203   1.2508   0.0000   2.1264  0.25017  -5.8650E-06  9.2549E-06  1.0957E-05  122.363
   140  203   1.2508   0.0000   2.3766  0.25017  -5.1324E-06  1.1345E-05  1.2452E-05  114.342
   141  204   3.7525   0.0000  -2.3766  0.25017  -1.3889E-08  2.0828E-07  2.0874E-07   93.815
   142  204   3.7525   0.0000  -2.1264  0.25017   1.2060E-08  9.1114E-09  1.5115E-08   37.070
   143  204   3.7525   0.0000  -1.8763  0.25017   9.4314E-08 -4.5256E-07  4.6229E-07  -78.228
   144  204   3.7525   0.0000  -1.6261  0.25017   8.3274E-08 -1.8949E-07  2.0698E-07  -66.277
   145  204   3.7525   0.0000  -1.3759  0.25017  -1.1933E-07  4.0010E-07  4.1752E-07  106.607
   146  204   3.7525   0.0000  -1.1258  0.25017  -3.2462E-07  2.4896E-07  4.0909E-07  142.514
   147  204   3.7525   0.0000  -0.8756  0.25017  -2.4817E-07 -3.2178E-07  4.0636E-07 -127.641
   148  204   3.7525   0.0000  -0.6254  0.25017   4.7501E-08 -2.1616E-07  2.2131E-07  -77.606
   149  204   3.7525   0.0000  -0.3753  0.25017   1.8591E-07  3.1074E-07  3.6211E-07   59.109
   150  204   3.7525   0.0000  -0.1251  0.25017   1.5478E-08  1.6708E-07  1.6779E-07   84.707
   151  204   3.7525   0.0000   0.1251  0.25017  -1.9268E-07 -4.1657E-07  4.5897E-07 -114.823
   152  204   3.7525   0.0000   0.3753  0.25017  -1.8151E-07 -3.2054E-07  3.6836E-07 -119.522
   153  204   3.7525   0.0000   0.6254  0.25017  -2.8586E-08  2.7436E-07  2.7585E-07   95.948
   154  204   3.7525   0.0000   0.8756  0.25017   8.1624E-08  2.3711E-07  2.5076E-07   71.004
   155  204   3.7525   0.0000   1.1258  0.25017   1.0362E-07 -2.9887E-07  3.1632E-07  -70.877
   156  204   3.7525   0.0000   1.3759  0.25017   5.0511E-08 -1.9609E-07  2.0249E-07  -75.555
   157  204   3.7525   0.0000   1.6261  0.25017  -4.8232E-08  4.4703E-07  4.4962E-07   96.158
   158  204   3.7525   0.0000   1.8763  0.25017  -6.7083E-08  4.4525E-07  4.5028E-07   98.568
   159  204   3.7525   0.0000   2.1264  0.25017   4.7371E-08 -2.0670E-07  2.1206E-07  -77.092
   160  204   3.7525   0.0000   2.3766  0.25017   8.2079E-08 -3.0082E-07  3.1182E-07  -74.738
   161  301  -3.7525   2.5017  -2.3766  0.25017  -1.1978E-07 -7.6917E-08  1.4235E-07 -147.292
   162  301  -3.7525   2.5017  -2.1264  0.25017  -1.1615E-07 -1.1401E-07  1.6276E-07 -135.533
   163  301  -3.7525   2.5017  -1.8763  0.25017   8.6603E-08 -8.4537E-09  8.7015E-08   -5.575
   164  301  -3.7525   2.5017  -1.6261  0.25017   8.4854E-08  2.1066E-08  8.7430E-08   13.943
   165  301  -3.7525   2.5017  -1.3759  0.25017  -1.1383E-07 -5.2569E-08  1.2538E-07 -155.211
   166  301  -3.7525   2.5017  -1.1258  0.25017  -1.4836E-07 -3.0632E-08  1.5149E-07 -168.334
   167  301  -3.7525   2.5017  -0.8756  0.25017  -1.9789E-08  8.7043E-08  8.9264E-08  102.808
   168  301  -3.7525   2.5017  -0.6254  0.25017  -4.5124E-08  8.5055E-08  9.6283E-08  117.947
   169  301  -3.7525   2.5017  -0.3753  0.25017  -1.8257E-07 -3.8652E-08  1.8662E-07 -168.046
   170  301  -3.7525   2.5017  -0.1251  0.25017  -1.0690E-07 -5.9588E-08  1.2239E-07 -150.865
   171  301  -3.7525   2.5017   0.1251  0.25017   1.1760E-07  3.4610E-08  1.2259E-07   16.399
   172  301  -3.7525   2.5017   0.3753  0.25017   1.3118E-07  2.4344E-08  1.3342E-07   10.513
   173  301  -3.7525   2.5017   0.6254  0.25017  -3.3790E-08 -9.7636E-08  1.0332E-07 -109.090
   174  301  -3.7525   2.5017   0.8756  0.25017  -3.9325E-08 -9.7768E-08  1.0538E-07 -111.912
   175  301  -3.7525   2.5017   1.1258  0.25017   8.0150E-08  4.8565E-08  9.3716E-08   31.212
   176  301  -3.7525   2.5017   1.3759  0.25017   1.4677E-08  1.1233E-07  1.1328E-07   82.556
   177  301  -3.7525   2.5017   1.6261  0.25017  -1.5045E-07  5.1946E-08  1.5917E-07  160.952
   178  301  -3.7525   2.5017   1.8763  0.25017  -6.7265E-08  6.2740E-08  9.1983E-08  136.993
   179  301  -3.7525   2.5017   2.1264  0.25017   1.6480E-07  1.4857E-07  2.2188E-07   42.035
   180  301  -3.7525   2.5017   2.3766  0.25017   1.3169E-07  9.3527E-08  1.6152E-07   35.383
   181  302  -1.2508   2.5017  -2.3766  0.25017   5.1696E-07 -1.9585E-07  5.5281E-07  -20.749
   182  302  -1.2508   2.5017  -2.1264  0.25017   5.5338E-07 -2.3193E-07  6.0002E-07  -22.740
   183  302  -1.2508   2.5017  -1.8763  0.25017  -4.0778E-07  1.6181E-07  4.3871E-07  158.357
   184  302  -1.2508   2.5017  -1.6261  0.25017  -5.7132E-07  2.1649E-07  6.1096E-07  159.246
   185  302  -1.2508   2.5017  -1.3759  0.25017   2.2520E-07 -1.9591E-07  2.9848E-07  -41.021
   186  302  -1.2508   2.5017  -1.1258  0.25017   3.2776E-07 -2.8160E-07  4.3212E-07  -40.668
   187  302  -1.2508   2.5017  -0.8756  0.25017  -4.2998E-07  1.4398E-07  4.5345E-07  161.487
   188  302  -1.2508   2.5017  -0.6254  0.25017  -4.7276E-07  3.1015E-07  5.6542E-07  146.733
   189  302  -1.2508   2.5017  -0.3753  0.25017   3.2412E-07 -2.3342E-08  3.2496E-07   -4.119
   190  302  -1.2508   2.5017  -0.1251  0.25017   3.9538E-07 -1.8747E-07  4.3757E-07  -25.368
   191  302  -1.2508   2.5017   0.1251  0.25017  -3.7477E-07  1.6824E-08  3.7515E-07  177.430
   192  302  -1.2508   2.5017   0.3753  0.25017  -4.3483E-07  7.7391E-09  4.3490E-07  178.980
   193  302  -1.2508   2.5017   0.6254  0.25017   3.2129E-07 -2.6731E-07  4.1795E-07  -39.759
   194  302  -1.2508   2.5017   0.8756  0.25017   3.6239E-07 -1.6595E-07  3.9858E-07  -24.604
   195  302  -1.2508   2.5017   1.1258  0.25017  -3.7735E-07  2.8413E-07  4.7236E-07  143.021
   196  302  -1.2508   2.5017   1.3759  0.25017  -3.5107E-07  3.1356E-07  4.7072E-07  138.230
   197  302  -1.2508   2.5017   1.6261  0.25017   4.6118E-07 -1.0147E-07  4.7221E-07  -12.409
   198  302  -1.2508   2.5017   1.8763  0.25017   4.3892E-07 -1.5307E-07  4.6484E-07  -19.225
   199  302  -1.2508   2.5017   2.1264  0.25017  -4.4485E-07  2.3025E-07  5.0091E-07  152.634
   200  302  -1.2508   2.5017   2.3766  0.25017  -4.7127E-07  2.3318E-07  5.2580E-07  153.674
   201  303   1.2508   2.5017  -2.3766  0.25017  -2.1997E-08  1.9833E-07  1.9954E-07   96.329
   202  303   1.2508   2.5017  -2.1264  0.25017   2.3480E-09 -4.1009E-09  4.7255E-09  -60.207
   203  303   1.2508   2.5017  -1.8763  0.25017   1.0092E-07 -4.5118E-07  4.6233E-07  -77.392
   204  303   1.2508   2.5017  -1.6261  0.25017   9.4707E-08 -1.8569E-07  2.0845E-07  -62.977
   205  303   1.2508   2.5017  -1.3759  0.25017  -1.2062E-07  3.9064E-07  4.0884E-07  107.160
   206  303   1.2508   2.5017  -1.1258  0.25017  -3.2873E-07  2.3877E-07  4.0629E-07  144.007
   207  303   1.2508   2.5017  -0.8756  0.25017  -2.3974E-07 -3.1710E-07  3.9753E-07 -127.090
   208  303   1.2508   2.5017  -0.6254  0.25017   5.7197E-08 -2.0935E-07  2.1702E-07  -74.719
   209  303   1.2508   2.5017  -0.3753  0.25017   1.8135E-07  3.0354E-07  3.5359E-07   59.144
   210  303   1.2508   2.5017  -0.1251  0.25017   8.1573E-09  1.5805E-07  1.5826E-07   87.045
   211  303   1.2508   2.5017   0.1251  0.25017  -1.8733E-07 -4.1139E-07  4.5204E-07 -114.483
   212  303   1.2508   2.5017   0.3753  0.25017  -1.7516E-07 -3.1319E-07  3.5884E-07 -119.218
   213  303   1.2508   2.5017   0.6254  0.25017  -3.6508E-08  2.6787E-07  2.7035E-07   97.761
   214  303   1.2508   2.5017   0.8756  0.25017   7.1287E-08  2.2897E-07  2.3981E-07   72.707
   215  303   1.2508   2.5017   1.1258  0.25017   1.0607E-07 -2.9205E-07  3.1072E-07  -70.040
   216  303   1.2508   2.5017   1.3759  0.25017   5.4049E-08 -1.8601E-07  1.9370E-07  -73.798
   217  303   1.2508   2.5017   1.6261  0.25017  -5.7509E-08  4.4364E-07  4.4736E-07   97.386
   218  303   1.2508   2.5017   1.8763  0.25017  -7.5421E-08  4.3956E-07  4.4598E-07   99.736
   219  303   1.2508   2.5017   2.1264  0.25017   5.5057E-08 -1.9875E-07  2.0623E-07  -74.516
   220  303   1.2508   2.5017   2.3766  0.25017   9.0652E-08 -2.9219E-07  3.0593E-07  -72.763
   221  304   3.7525   2.5017  -2.3766  0.25017   5.0392E-07 -2.0050E-07  5.4234E-07  -21.696
   222  304   3.7525   2.5017  -2.1264  0.25017   5.3895E-07 -2.3820E-07  5.8924E-07  -23.844
   223  304   3.7525   2.5017  -1.8763  0.25017  -3.9677E-07  1.6159E-07  4.2841E-07  157.841
   224  304   3.7525   2.5017  -1.6261  0.25017  -5.5529E-07  2.1724E-07  5.9627E-07  158.634
   225  304   3.7525   2.5017  -1.3759  0.25017   2.2008E-07 -2.0138E-07  2.9831E-07  -42.459
   226  304   3.7525   2.5017  -1.1258  0.25017   3.2063E-07 -2.8901E-07  4.3166E-07  -42.031
   227  304   3.7525   2.5017  -0.8756  0.25017  -4.1458E-07  1.4196E-07  4.3821E-07  161.098
   228  304   3.7525   2.5017  -0.6254  0.25017  -4.5548E-07  3.1033E-07  5.5115E-07  145.732
   229  304   3.7525   2.5017  -0.3753  0.25017   3.1715E-07 -2.7653E-08  3.1836E-07   -4.983
   230  304   3.7525   2.5017  -0.1251  0.25017   3.8362E-07 -1.9312E-07  4.2949E-07  -26.722
   231  304   3.7525   2.5017   0.1251  0.25017  -3.6580E-07  1.6624E-08  3.6618E-07  177.398
   232  304   3.7525   2.5017   0.3753  0.25017  -4.2472E-07  1.0188E-08  4.2484E-07  178.626
   233  304   3.7525   2.5017   0.6254  0.25017   3.0716E-07 -2.6895E-07  4.0826E-07  -41.205
   234  304   3.7525   2.5017   0.8756  0.25017   3.4431E-07 -1.6915E-07  3.8361E-07  -26.163
   235  304   3.7525   2.5017   1.1258  0.25017  -3.7274E-07  2.8565E-07  4.6961E-07  142.535
   236  304   3.7525   2.5017   1.3759  0.25017  -3.4276E-07  3.1631E-07  4.6641E-07  137.298
   237  304   3.7525   2.5017   1.6261  0.25017   4.4769E-07 -1.0494E-07  4.5983E-07  -13.192
   238  304   3.7525   2.5017   1.8763  0.25017   4.2384E-07 -1.5944E-07  4.5283E-07  -20.616
   239  304   3.7525   2.5017   2.1264  0.25017  -4.3516E-07  2.2953E-07  4.9198E-07  152.190
   240  304   3.7525   2.5017   2.3766  0.25017  -4.5836E-07  2.3560E-07  5.1537E-07  152.797



                                        - - - POWER BUDGET - - -

                                           INPUT POWER   = 2.9450E-08 WATTS
                                           RADIATED POWER= 2.9450E-08 WATTS
                                           STRUCTURE LOSS= 0.0000E+00 WATTS
                                           NETWORK LOSS  = 0.0000E+00 WATTS
                                           EFFICIENCY    = 100.00 PERCENT



                                                - - - RADIATION PATTERNS - - -

  - - ANGLES - -       - DIRECTIVE GAINS -       - - - POLARIZATION - - -    - - - E(THETA) - - -    - - - E(PHI) - - -
  THETA     PHI        VERT.   HOR.    TOTAL      AXIAL     TILT   SENSE     MAGNITUDE    PHASE      MAGNITUDE    PHASE 
 DEGREES  DEGREES       DB      DB      DB        RATIO     DEG.              VOLTS/M    DEGREES      VOLTS/M    DEGREES
    0.00     0.00    -999.99 -999.99 -999.99    0.00000     0.00            0.00000E+00     0.00    0.00000E+00     0.00
    5.00     0.00      -5.71 -999.99   -5.71    0.00000     0.00  LINEAR    6.88606E-04   -30.42    0.00000E+00     0.00
   10.00     0.00       0.27 -999.99    0.27    0.00000     0.00  LINEAR    1.37085E-03    -0.71    0.00000E+00     0.00
   15.00     0.00       3.68 -999.99    3.68    0.00000     0.00  LINEAR    2.02885E-03    39.49    0.00000E+00     0.00
   20.00     0.00       6.47 -999.99    6.47    0.00000     0.00  LINEAR    2.80019E-03    87.44    0.00000E+00     0.00
   25.00     0.00       7.20 -999.99    7.20    0.00000     0.00  LINEAR    3.04328E-03   124.05    0.00000E+00     0.00
   30.00     0.00       5.53 -999.99    5.53    0.00000     0.00  LINEAR    2.51196E-03   153.94    0.00000E+00     0.00
   35.00     0.00       0.97 -999.99    0.97    0.00000     0.00  LINEAR    1.48611E-03  -175.98    0.00000E+00     0.00
   40.00     0.00     -17.78 -999.99  -17.78    0.00000     0.00  LINEAR    1.71575E-04  -111.30    0.00000E+00     0.00
   45.00     0.00      -3.85 -999.99   -3.85    0.00000     0.00  LINEAR    8.53523E-04    68.04    0.00000E+00     0.00
   50.00     0.00      -7.01 -999.99   -7.01    0.00000     0.00  LINEAR    5.92547E-04    91.95    0.00000E+00     0.00
   55.00     0.00      -5.25 -999.99   -5.25    0.00000     0.00  LINEAR    7.25685E-04   -40.32    0.00000E+00     0.00
   60.00     0.00       1.20 -999.99    1.20    0.00000     0.00  LINEAR    1.52489E-03   -26.86    0.00000E+00     0.00
   65.00     0.00      -2.60 -999.99   -2.60    0.00000     0.00  LINEAR    9.85320E-04   -11.23    0.00000E+00     0.00
   70.00     0.00     -12.15 -999.99  -12.15    0.00000     0.00  LINEAR    3.28166E-04   148.90    0.00000E+00     0.00
   75.00     0.00      -6.70 -999.99   -6.70    0.00000     0.00  LINEAR    6.14427E-04   168.68    0.00000E+00     0.00
   80.00     0.00      -8.52 -999.99   -8.52    0.00000     0.00  LINEAR    4.98009E-04    19.67    0.00000E+00     0.00
   85.00     0.00      -0.58 -999.99   -0.58    0.00000     0.00  LINEAR    1.24334E-03    21.35    0.00000E+00     0.00
   90.00     0.00      -7.89 -999.99   -7.89    0.00000     0.00  LINEAR    5.35561E-04    53.47    0.00000E+00     0.00
    0.00     5.00    -999.99 -999.99 -999.99    0.00000     0.00            0.00000E+00     0.00    0.00000E+00     0.00
    5.00     5.00      -5.71 -999.99   -5.71    0.00000     0.00  LINEAR    6.88902E-04   -30.57    0.00000E+00     0.00
   10.00     5.00       0.30 -999.99    0.30    0.00000     0.00  LINEAR    1.37478E-03    -0.77    0.00000E+00     0.00
   15.00     5.00       3.73 -999.99    3.73    0.00000     0.00  LINEAR    2.04209E-03    39.13    0.00000E+00     0.00
   20.00     5.00       6.43 -999.99    6.43    0.00000     0.00  LINEAR    2.78721E-03    86.24    0.00000E+00     0.00
   25.00     5.00       7.16 -999.99    7.16    0.00000     0.00  LINEAR    3.02973E-03   122.47    0.00000E+00     0.00
   30.00     5.00       5.58 -999.99    5.58    0.00000     0.00  LINEAR    2.52733E-03   152.69    0.00000E+00     0.00
   35.00     5.00       0.93 -999.99    0.93    0.00000     0.00  LINEAR    1.47910E-03  -177.63    0.00000E+00     0.00
   40.00     5.00     -25.30 -999.99  -25.30    0.00000     0.00  LINEAR    7.21742E-05  -116.14    0.00000E+00     0.00
   45.00     5.00      -3.54 -999.99   -3.54    0.00000     0.00  LINEAR    8.83789E-04    66.85    0.00000E+00     0.00
   50.00     5.00      -7.19 -999.99   -7.19    0.00000     0.00  LINEAR    5.80763E-04    91.18    0.00000E+00     0.00
   55.00     5.00      -5.29 -999.99   -5.29    0.00000     0.00  LINEAR    7.22747E-04   -51.07    0.00000E+00     0.00
   60.00     5.00       1.30 -999.99    1.30    0.00000     0.00  LINEAR    1.54265E-03   -35.50    0.00000E+00     0.00
   65.00     5.00      -2.75 -999.99   -2.75    0.00000     0.00  LINEAR    9.68163E-04   -14.79    0.00000E+00     0.00
   70.00     5.00     -10.77 -999.99  -10.77    0.00000     0.00  LINEAR    3.84581E-04   150.19    0.00000E+00     0.00
   75.00     5.00      -5.99 -999.99   -5.99    0.00000     0.00  LINEAR    6.67119E-04   173.68    0.00000E+00     0.00
   80.00     5.00      -8.05 -999.99   -8.05    0.00000     0.00  LINEAR    5.26260E-04    22.25    0.00000E+00     0.00
   85.00     5.00       0.11 -999.99    0.11    0.00000     0.00  LINEAR    1.34538E-03    24.34    0.00000E+00     0.00
   90.00     5.00      -7.99 -999.99   -7.99    0.00000     0.00  LINEAR    5.29427E-04    50.30    0.00000E+00     0.00
    0.00    10.00    -999.99 -999.99 -999.99    0.00000     0.00            0.00000E+00     0.00    0.00000E+00     0.00
    5.00    10.00      -5.70 -999.99   -5.70    0.00000     0.00  LINEAR    6.89769E-04   -31.00    0.00000E+00     0.00
   10.00    10.00       0.37 -999.99    0.37    0.00000     0.00  LINEAR    1.38611E-03    -0.99    0.00000E+00     0.00
   15.00    10.00       3.90 -999.99    3.90    0.00000     0.00  LINEAR    2.08139E-03    38.10    0.00000E+00     0.00
   20.00    10.00       6.34 -999.99    6.34    0.00000     0.00  LINEAR    2.75730E-03    82.78    0.00000E+00     0.00
   25.00    10.00       7.05 -999.99    7.05    0.00000     0.00  LINEAR    2.99246E-03   117.99    0.00000E+00     0.00
   30.00    10.00       5.70 -999.99    5.70    0.00000     0.00  LINEAR    2.56204E-03   148.96    0.00000E+00     0.00
   35.00    10.00       0.85 -999.99    0.85    0.00000     0.00  LINEAR    1.46539E-03   177.84    0.00000E+00     0.00
   40.00    10.00     -17.73 -999.99  -17.73    0.00000     0.00  LINEAR    1.72625E-04    71.38    0.00000E+00     0.00
   45.00    10.00      -2.57 -999.99   -2.57    0.00000     0.00  LINEAR    9.88085E-04    64.24    0.00000E+00     0.00
   50.00    10.00      -7.30 -999.99   -7.30    0.00000     0.00  LINEAR    5.73735E-04    89.50    0.00000E+00     0.00
   55.00    10.00      -4.95 -999.99   -4.95    0.00000     0.00  LINEAR    7.51161E-04   -71.38    0.00000E+00     0.00
   60.00    10.00       1.93 -999.99    1.93    0.00000     0.00  LINEAR    1.65869E-03   -52.59    0.00000E+00     0.00
   65.00    10.00      -2.83 -999.99   -2.83    0.00000     0.00  LINEAR    9.59800E-04   -27.22    0.00000E+00     0.00
   70.00    10.00      -8.92 -999.99   -8.92    0.00000     0.00  LINEAR    4.76077E-04   147.50    0.00000E+00     0.00
   75.00    10.00      -4.99 -999.99   -4.99    0.00000     0.00  LINEAR    7.47725E-04   174.77    0.00000E+00     0.00
   80.00    10.00      -7.64 -999.99   -7.64    0.00000     0.00  LINEAR    5.51145E-04    19.55    0.00000E+00     0.00
   85.00    10.00       0.82 -999.99    0.82    0.00000     0.00  LINEAR    1.45973E-03    23.31    0.00000E+00     0.00
   90.00    10.00      -8.38 -999.99   -8.38    0.00000     0.00  LINEAR    5.06083E-04    42.03    0.00000E+00     0.00
    0.00    15.00    -999.99 -999.99 -999.99    0.00000     0.00            0.00000E+00     0.00    0.00000E+00     0.00
    5.00    15.00      -5.68 -999.99   -5.68    0.00000     0.00  LINEAR    6.91145E-04   -31.72    0.00000E+00     0.00
   10.00    15.00       0.47 -999.99    0.47    0.00000     0.00  LINEAR    1.40345E-03    -1.46    0.00000E+00     0.00
   15.00    15.00       4.16 -999.99    4.16    0.00000     0.00  LINEAR    2.14491E-03    36.54    0.00000E+00     0.00
   20.00    15.00       6.26 -999.99    6.26    0.00000     0.00  LINEAR    2.73323E-03    77.58    0.00000E+00     0.00
   25.00    15.00       6.90 -999.99    6.90    0.00000     0.00  LINEAR    2.94087E-03   111.29    0.00000E+00     0.00
   30.00    15.00       5.80 -999.99    5.80    0.00000     0.00  LINEAR    2.59135E-03   142.94    0.00000E+00     0.00
   35.00    15.00       0.81 -999.99    0.81    0.00000     0.00  LINEAR    1.45846E-03   171.47    0.00000E+00     0.00
   40.00    15.00     -10.28 -999.99  -10.28    0.00000     0.00  LINEAR    4.07096E-04    65.87    0.00000E+00     0.00
   45.00    15.00      -1.30 -999.99   -1.30    0.00000     0.00  LINEAR    1.14384E-03    60.38    0.00000E+00     0.00
   50.00    15.00      -6.83 -999.99   -6.83    0.00000     0.00  LINEAR    6.05053E-04    86.08    0.00000E+00     0.00
   55.00    15.00      -5.12 -999.99   -5.12    0.00000     0.00  LINEAR    7.37096E-04   -83.01    0.00000E+00     0.00
   60.00    15.00       2.22 -999.99    2.22    0.00000     0.00  LINEAR    1.71617E-03   -61.95    0.00000E+00     0.00
   65.00    15.00      -2.52 -999.99   -2.52    0.00000     0.00  LINEAR    9.93837E-04   -39.07    0.00000E+00     0.00
   70.00    15.00      -8.97 -999.99   -8.97    0.00000     0.00  LINEAR    4.72971E-04   139.35    0.00000E+00     0.00
   75.00    15.00      -5.38 -999.99   -5.38    0.00000     0.00  LINEAR    7.15255E-04   163.66    0.00000E+00     0.00
   80.00    15.00      -7.64 -999.99   -7.64    0.00000     0.00  LINEAR    5.51558E-04     6.69    0.00000E+00     0.00
   85.00    15.00       0.52 -999.99    0.52    0.00000     0.00  LINEAR    1.41075E-03    11.78    0.00000E+00     0.00
   90.00    15.00      -8.28 -999.99   -8.28    0.00000     0.00  LINEAR    5.12165E-04    32.38    0.00000E+00     0.00
    0.00    20.00    -999.99 -999.99 -999.99    0.00000     0.00            0.00000E+00     0.00    0.00000E+00     0.00
    5.00    20.00      -5.66 -999.99   -5.66    0.00000     0.00  LINEAR    6.92936E-04   -32.74    0.00000E+00     0.00
   10.00    20.00       0.60 -999.99    0.60    0.00000     0.00  LINEAR    1.42455E-03    -2.32    0.00000E+00     0.00
   15.00    20.00       4.49 -999.99    4.49    0.00000     0.00  LINEAR    2.22798E-03    34.54    0.00000E+00     0.00
   20.00    20.00       6.29 -999.99    6.29    0.00000     0.00  LINEAR    2.74016E-03    71.39    0.00000E+00     0.00
   25.00    20.00       6.75 -999.99    6.75    0.00000     0.00  LINEAR    2.88904E-03   103.38    0.00000E+00     0.00
   30.00    20.00       5.82 -999.99    5.82    0.00000     0.00  LINEAR    2.59585E-03   135.31    0.00000E+00     0.00
   35.00    20.00       0.83 -999.99    0.83    0.00000     0.00  LINEAR    1.46191E-03   164.41    0.00000E+00     0.00
   40.00    20.00      -9.28 -999.99   -9.28    0.00000     0.00  LINEAR    4.56367E-04    60.52    0.00000E+00     0.00
   45.00    20.00      -0.78 -999.99   -0.78    0.00000     0.00  LINEAR    1.21437E-03    52.97    0.00000E+00     0.00
   50.00    20.00      -6.41 -999.99   -6.41    0.00000     0.00  LINEAR    6.35011E-04    77.35    0.00000E+00     0.00
   55.00    20.00      -5.71 -999.99   -5.71    0.00000     0.00  LINEAR    6.88976E-04   -82.48    0.00000E+00     0.00
   60.00    20.00       1.57 -999.99    1.57    0.00000     0.00  LINEAR    1.59168E-03   -59.86    0.00000E+00     0.00
   65.00    20.00      -3.15 -999.99   -3.15    0.00000     0.00  LINEAR    9.24794E-04   -34.34    0.00000E+00     0.00
   70.00    20.00      -9.14 -999.99   -9.14    0.00000     0.00  LINEAR    4.64168E-04   124.46    0.00000E+00     0.00
   75.00    20.00      -6.58 -999.99   -6.58    0.00000     0.00  LINEAR    6.23097E-04   150.29    0.00000E+00     0.00
   80.00    20.00      -7.05 -999.99   -7.05    0.00000     0.00  LINEAR    5.89925E-04    -5.91    0.00000E+00     0.00
   85.00    20.00       0.36 -999.99    0.36    0.00000     0.00  LINEAR    1.38548E-03    -1.25    0.00000E+00     0.00
   90.00    20.00      -7.10 -999.99   -7.10    0.00000     0.00  LINEAR    5.86612E-04    24.13    0.00000E+00     0.00
    0.00    25.00    -999.99 -999.99 -999.99    0.00000     0.00            0.00000E+00     0.00    0.00000E+00     0.00
    5.00    25.00      -5.63 -999.99   -5.63    0.00000     0.00  LINEAR    6.95026E-04   -34.05    0.00000E+00     0.00
   10.00    25.00       0.74 -999.99    0.74    0.00000     0.00  LINEAR    1.44654E-03    -3.73    0.00000E+00     0.00
   15.00    25.00       4.85 -999.99    4.85    0.00000     0.00  LINEAR    2.32179E-03    32.10    0.00000E+00     0.00
   20.00    25.00       6.45 -999.99    6.45    0.00000     0.00  LINEAR    2.79280E-03    64.97    0.00000E+00     0.00
   25.00    25.00       6.64 -999.99    6.64    0.00000     0.00  LINEAR    2.85515E-03    95.31    0.00000E+00     0.00
   30.00    25.00       5.74 -999.99    5.74    0.00000     0.00  LINEAR    2.57398E-03   127.15    0.00000E+00     0.00
   35.00    25.00       0.85 -999.99    0.85    0.00000     0.00  LINEAR    1.46534E-03   157.14    0.00000E+00     0.00
   40.00    25.00     -13.56 -999.99  -13.56    0.00000     0.00  LINEAR    2.78766E-04    55.21    0.00000E+00     0.00
   45.00    25.00      -1.89 -999.99   -1.89    0.00000     0.00  LINEAR    1.06934E-03    39.00    0.00000E+00     0.00
   50.00    25.00      -6.97 -999.99   -6.97    0.00000     0.00  LINEAR    5.95562E-04    62.41    0.00000E+00     0.00
   55.00    25.00      -5.25 -999.99   -5.25    0.00000     0.00  LINEAR    7.25911E-04   -83.36    0.00000E+00     0.00
   60.00    25.00       1.37 -999.99    1.37    0.00000     0.00  LINEAR    1.55604E-03   -60.70    0.00000E+00     0.00
   65.00    25.00      -3.94 -999.99   -3.94    0.00000     0.00  LINEAR    8.44539E-04   -25.92    0.00000E+00     0.00
   70.00    25.00      -6.63 -999.99   -6.63    0.00000     0.00  LINEAR    6.19684E-04   109.51    0.00000E+00     0.00
   75.00    25.00      -6.67 -999.99   -6.67    0.00000     0.00  LINEAR    6.16392E-04   140.77    0.00000E+00     0.00
   80.00    25.00      -6.26 -999.99   -6.26    0.00000     0.00  LINEAR    6.46325E-04   -24.67    0.00000E+00     0.00
   85.00    25.00       0.69 -999.99    0.69    0.00000     0.00  LINEAR    1.43865E-03   -15.81    0.00000E+00     0.00
   90.00    25.00      -6.61 -999.99   -6.61    0.00000     0.00  LINEAR    6.21165E-04     8.83    0.00000E+00     0.00
    0.00    30.00    -999.99 -999.99 -999.99    0.00000     0.00            0.00000E+00     0.00    0.00000E+00     0.00
    5.00    30.00      -5.60 -999.99   -5.60    0.00000     0.00  LINEAR    6.97287E-04   -35.65    0.00000E+00     0.00
   10.00    30.00       0.86 -999.99    0.86    0.00000     0.00  LINEAR    1.46632E-03    -5.85    0.00000E+00     0.00
   15.00    30.00       5.18 -999.99    5.18    0.00000     0.00  LINEAR    2.41297E-03    29.07    0.00000E+00     0.00
   20.00    30.00       6.74 -999.99    6.74    0.00000     0.00  LINEAR    2.88721E-03    58.72    0.00000E+00     0.00
   25.00    30.00       6.65 -999.99    6.65    0.00000     0.00  LINEAR    2.85819E-03    87.68    0.00000E+00     0.00
   30.00    30.00       5.65 -999.99    5.65    0.00000     0.00  LINEAR    2.54588E-03   119.38    0.00000E+00     0.00
   35.00    30.00       0.80 -999.99    0.80    0.00000     0.00  LINEAR    1.45780E-03   149.40    0.00000E+00     0.00
   40.00    30.00     -29.16 -999.99  -29.16    0.00000     0.00  LINEAR    4.62982E-05    75.06    0.00000E+00     0.00
   45.00    30.00      -4.00 -999.99   -4.00    0.00000     0.00  LINEAR    8.38030E-04    17.13    0.00000E+00     0.00
   50.00    30.00      -8.22 -999.99   -8.22    0.00000     0.00  LINEAR    5.15598E-04    45.37    0.00000E+00     0.00
   55.00    30.00      -5.36 -999.99   -5.36    0.00000     0.00  LINEAR    7.16847E-04  -101.29    0.00000E+00     0.00
   60.00    30.00       1.46 -999.99    1.46    0.00000     0.00  LINEAR    1.57221E-03   -79.13    0.00000E+00     0.00
   65.00    30.00      -3.83 -999.99   -3.83    0.00000     0.00  LINEAR    8.54893E-04   -50.86    0.00000E+00     0.00
   70.00    30.00      -7.11 -999.99   -7.11    0.00000     0.00  LINEAR    5.85920E-04    96.55    0.00000E+00     0.00
   75.00    30.00      -6.23 -999.99   -6.23    0.00000     0.00  LINEAR    6.48568E-04   122.19    0.00000E+00     0.00
   80.00    30.00      -6.15 -999.99   -6.15    0.00000     0.00  LINEAR    6.54481E-04   -43.54    0.00000E+00     0.00
   85.00    30.00       0.90 -999.99    0.90    0.00000     0.00  LINEAR    1.47395E-03   -35.82    0.00000E+00     0.00
   90.00    30.00      -6.78 -999.99   -6.78    0.00000     0.00  LINEAR    6.08720E-04   -11.22    0.00000E+00     0.00
    0.00    35.00    -999.99 -999.99 -999.99    0.00000     0.00            0.00000E+00     0.00    0.00000E+00     0.00
    5.00    35.00      -5.57 -999.99   -5.57    0.00000     0.00  LINEAR    6.99590E-04   -37.54    0.00000E+00     0.00
   10.00    35.00       0.94 -999.99    0.94    0.00000     0.00  LINEAR    1.48114E-03    -8.79    0.00000E+00     0.00
   15.00    35.00       5.44 -999.99    5.44    0.00000     0.00  LINEAR    2.48530E-03    25.19    0.00000E+00     0.00
   20.00    35.00       7.07 -999.99    7.07    0.00000     0.00  LINEAR    2.99933E-03    52.41    0.00000E+00     0.00
   25.00    35.00       6.79 -999.99    6.79    0.00000     0.00  LINEAR    2.90391E-03    80.21    0.00000E+00     0.00
   30.00    35.00       5.63 -999.99    5.63    0.00000     0.00  LINEAR    2.54174E-03   111.86    0.00000E+00     0.00
   35.00    35.00       0.71 -999.99    0.71    0.00000     0.00  LINEAR    1.44175E-03   140.61    0.00000E+00     0.00
   40.00    35.00     -25.13 -999.99  -25.13    0.00000     0.00  LINEAR    7.36028E-05  -177.92    0.00000E+00     0.00
   45.00    35.00      -4.71 -999.99   -4.71    0.00000     0.00  LINEAR    7.72592E-04    -0.95    0.00000E+00     0.00
   50.00    35.00      -7.91 -999.99   -7.91    0.00000     0.00  LINEAR    5.34242E-04    31.09    0.00000E+00     0.00
   55.00    35.00      -5.77 -999.99   -5.77    0.00000     0.00  LINEAR    6.84091E-04  -132.41    0.00000E+00     0.00
   60.00    35.00       1.34 -999.99    1.34    0.00000     0.00  LINEAR    1.55034E-03  -108.54    0.00000E+00     0.00
   65.00    35.00      -2.68 -999.99   -2.68    0.00000     0.00  LINEAR    9.76566E-04   -85.63    0.00000E+00     0.00
   70.00    35.00     -12.09 -999.99  -12.09    0.00000     0.00  LINEAR    3.30308E-04    58.58    0.00000E+00     0.00
   75.00    35.00      -6.97 -999.99   -6.97    0.00000     0.00  LINEAR    5.95526E-04    91.61    0.00000E+00     0.00
   80.00    35.00      -9.33 -999.99   -9.33    0.00000     0.00  LINEAR    4.53687E-04   -51.37    0.00000E+00     0.00
   85.00    35.00      -0.69 -999.99   -0.69    0.00000     0.00  LINEAR    1.22669E-03   -52.57    0.00000E+00     0.00
   90.00    35.00      -7.54 -999.99   -7.54    0.00000     0.00  LINEAR    5.57806E-04   -22.24    0.00000E+00     0.00
    0.00    40.00    -999.99 -999.99 -999.99    0.00000     0.00            0.00000E+00     0.00    0.00000E+00     0.00
    5.00    40.00      -5.54 -999.99   -5.54    0.00000     0.00  LINEAR    7.01818E-04   -39.70    0.00000E+00     0.00
   10.00    40.00       0.99 -999.99    0.99    0.00000     0.00  LINEAR    1.48927E-03   -12.65    0.00000E+00     0.00
   15.00    40.00       5.57 -999.99    5.57    0.00000     0.00  LINEAR    2.52383E-03    20.15    0.00000E+00     0.00
   20.00    40.00       7.33 -999.99    7.33    0.00000     0.00  LINEAR    3.09136E-03    45.45    0.00000E+00     0.00
   25.00    40.00       6.98 -999.99    6.98    0.00000     0.00  LINEAR    2.96654E-03    71.81    0.00000E+00     0.00
   30.00    40.00       5.71 -999.99    5.71    0.00000     0.00  LINEAR    2.56499E-03   103.15    0.00000E+00     0.00
   35.00    40.00       0.62 -999.99    0.62    0.00000     0.00  LINEAR    1.42761E-03   130.01    0.00000E+00     0.00
   40.00    40.00     -29.03 -999.99  -29.03    0.00000     0.00  LINEAR    4.69620E-05   154.76    0.00000E+00     0.00
   45.00    40.00      -3.65 -999.99   -3.65    0.00000     0.00  LINEAR    8.72931E-04    -9.14    0.00000E+00     0.00
   50.00    40.00      -5.34 -999.99   -5.34    0.00000     0.00  LINEAR    7.18722E-04    16.60    0.00000E+00     0.00
   55.00    40.00      -5.59 -999.99   -5.59    0.00000     0.00  LINEAR    6.98448E-04  -148.07    0.00000E+00     0.00
   60.00    40.00       2.22 -999.99    2.22    0.00000     0.00  LINEAR    1.71495E-03  -132.84    0.00000E+00     0.00
   65.00    40.00      -2.83 -999.99   -2.83    0.00000     0.00  LINEAR    9.59058E-04  -116.53    0.00000E+00     0.00
   70.00    40.00      -9.98 -999.99   -9.98    0.00000     0.00  LINEAR    4.21127E-04    43.86    0.00000E+00     0.00
   75.00    40.00      -6.57 -999.99   -6.57    0.00000     0.00  LINEAR    6.23336E-04    67.24    0.00000E+00     0.00
   80.00    40.00      -9.56 -999.99   -9.56    0.00000     0.00  LINEAR    4.42030E-04   -86.15    0.00000E+00     0.00
   85.00    40.00      -0.96 -999.99   -0.96    0.00000     0.00  LINEAR    1.18972E-03   -81.44    0.00000E+00     0.00
   90.00    40.00      -8.14 -999.99   -8.14    0.00000     0.00  LINEAR    5.20316E-04   -51.88    0.00000E+00     0.00
    0.00    45.00    -999.99 -999.99 -999.99    0.00000     0.00            0.00000E+00     0.00    0.00000E+00     0.00
    5.00    45.00      -5.52 -999.99   -5.52    0.00000     0.00  LINEAR    7.03868E-04   -42.11    0.00000E+00     0.00
   10.00    45.00       1.00 -999.99    1.00    0.00000     0.00  LINEAR    1.49030E-03   -17.42    0.00000E+00     0.00
   15.00    45.00       5.56 -999.99    5.56    0.00000     0.00  LINEAR    2.52041E-03    13.74    0.00000E+00     0.00
   20.00    45.00       7.44 -999.99    7.44    0.00000     0.00  LINEAR    3.12783E-03    37.20    0.00000E+00     0.00
   25.00    45.00       7.07 -999.99    7.07    0.00000     0.00  LINEAR    2.99852E-03    61.24    0.00000E+00     0.00
   30.00    45.00       5.74 -999.99    5.74    0.00000     0.00  LINEAR    2.57373E-03    91.44    0.00000E+00     0.00
   35.00    45.00       0.57 -999.99    0.57    0.00000     0.00  LINEAR    1.41950E-03   116.34    0.00000E+00     0.00
   40.00    45.00     -46.70 -999.99  -46.70    0.00000     0.00  LINEAR    6.14129E-06   172.81    0.00000E+00     0.00
   45.00    45.00      -3.03 -999.99   -3.03    0.00000     0.00  LINEAR    9.37712E-04   -24.91    0.00000E+00     0.00
   50.00    45.00      -4.02 -999.99   -4.02    0.00000     0.00  LINEAR    8.36798E-04    -0.58    0.00000E+00     0.00
   55.00    45.00      -6.60 -999.99   -6.60    0.00000     0.00  LINEAR    6.21267E-04  -157.51    0.00000E+00     0.00
   60.00    45.00       2.91 -999.99    2.91    0.00000     0.00  LINEAR    1.85687E-03  -148.55    0.00000E+00     0.00
   65.00    45.00      -1.71 -999.99   -1.71    0.00000     0.00  LINEAR    1.09186E-03  -141.14    0.00000E+00     0.00
   70.00    45.00      -8.86 -999.99   -8.86    0.00000     0.00  LINEAR    4.79323E-04    41.24    0.00000E+00     0.00
   75.00    45.00      -5.75 -999.99   -5.75    0.00000     0.00  LINEAR    6.85791E-04    48.40    0.00000E+00     0.00
   80.00    45.00      -6.62 -999.99   -6.62    0.00000     0.00  LINEAR    6.20082E-04  -110.68    0.00000E+00     0.00
   85.00    45.00       0.81 -999.99    0.81    0.00000     0.00  LINEAR    1.45805E-03  -106.87    0.00000E+00     0.00
   90.00    45.00      -6.79 -999.99   -6.79    0.00000     0.00  LINEAR    6.07755E-04   -83.80    0.00000E+00     0.00
    0.00    50.00    -999.99 -999.99 -999.99    0.00000     0.00            0.00000E+00     0.00    0.00000E+00     0.00
    5.00    50.00      -5.50 -999.99   -5.50    0.00000     0.00  LINEAR    7.05656E-04   -44.74    0.00000E+00     0.00
   10.00    50.00       0.97 -999.99    0.97    0.00000     0.00  LINEAR    1.48509E-03   -23.03    0.00000E+00     0.00
   15.00    50.00       5.41 -999.99    5.41    0.00000     0.00  LINEAR    2.47788E-03     5.84    0.00000E+00     0.00
   20.00    50.00       7.35 -999.99    7.35    0.00000     0.00  LINEAR    3.09567E-03    27.31    0.00000E+00     0.00
   25.00    50.00       7.01 -999.99    7.01    0.00000     0.00  LINEAR    2.97793E-03    47.89    0.00000E+00     0.00
   30.00    50.00       5.62 -999.99    5.62    0.00000     0.00  LINEAR    2.53663E-03    75.71    0.00000E+00     0.00
   35.00    50.00       0.58 -999.99    0.58    0.00000     0.00  LINEAR    1.42044E-03    98.54    0.00000E+00     0.00
   40.00    50.00     -33.25 -999.99  -33.25    0.00000     0.00  LINEAR    2.88901E-05   171.52    0.00000E+00     0.00
   45.00    50.00      -3.65 -999.99   -3.65    0.00000     0.00  LINEAR    8.73010E-04   -52.07    0.00000E+00     0.00
   50.00    50.00      -5.85 -999.99   -5.85    0.00000     0.00  LINEAR    6.77694E-04   -23.74    0.00000E+00     0.00
   55.00    50.00      -7.17 -999.99   -7.17    0.00000     0.00  LINEAR    5.82385E-04   163.19    0.00000E+00     0.00
   60.00    50.00       1.95 -999.99    1.95    0.00000     0.00  LINEAR    1.66401E-03  -175.18    0.00000E+00     0.00
[...]
   40.00   315.00     -46.70 -999.99  -46.70    0.00000     0.00  LINEAR    6.14129E-06   172.81    0.00000E+00     0.00
   45.00   315.00      -3.03 -999.99   -3.03    0.00000     0.00  LINEAR    9.37712E-04   -24.91    0.00000E+00     0.00
   50.00   315.00      -4.02 -999.99   -4.02    0.00000     0.00  LINEAR    8.36798E-04    -0.58    0.00000E+00     0.00
   55.00   315.00      -6.60 -999.99   -6.60    0.00000     0.00  LINEAR    6.21267E-04  -157.51    0.00000E+00     0.00
   60.00   315.00       2.91 -999.99    2.91    0.00000     0.00  LINEAR    1.85687E-03  -148.55    0.00000E+00     0.00
   65.00   315.00      -1.71 -999.99   -1.71    0.00000     0.00  LINEAR    1.09186E-03  -141.14    0.00000E+00     0.00
   70.00   315.00      -8.86 -999.99   -8.86    0.00000     0.00  LINEAR    4.79323E-04    41.24    0.00000E+00     0.00
   75.00   315.00      -5.75 -999.99   -5.75    0.00000     0.00  LINEAR    6.85791E-04    48.40    0.00000E+00     0.00
   80.00   315.00      -6.62 -999.99   -6.62    0.00000     0.00  LINEAR    6.20082E-04  -110.68    0.00000E+00     0.00
   85.00   315.00       0.81 -999.99    0.81    0.00000     0.00  LINEAR    1.45805E-03  -106.87    0.00000E+00     0.00
   90.00   315.00      -6.79 -999.99   -6.79    0.00000     0.00  LINEAR    6.07755E-04   -83.80    0.00000E+00     0.00
    0.00   320.00    -999.99 -999.99 -999.99    0.00000     0.00            0.00000E+00     0.00    0.00000E+00     0.00
    5.00   320.00      -5.54 -999.99   -5.54    0.00000     0.00  LINEAR    7.01818E-04   -39.70    0.00000E+00     0.00
   10.00   320.00       0.99 -999.99    0.99    0.00000     0.00  LINEAR    1.48927E-03   -12.65    0.00000E+00     0.00
   15.00   320.00       5.57 -999.99    5.57    0.00000     0.00  LINEAR    2.52383E-03    20.15    0.00000E+00     0.00
   20.00   320.00       7.33 -999.99    7.33    0.00000     0.00  LINEAR    3.09136E-03    45.45    0.00000E+00     0.00
   25.00   320.00       6.98 -999.99    6.98    0.00000     0.00  LINEAR    2.96654E-03    71.81    0.00000E+00     0.00
   30.00   320.00       5.71 -999.99    5.71    0.00000     0.00  LINEAR    2.56499E-03   103.15    0.00000E+00     0.00
   35.00   320.00       0.62 -999.99    0.62    0.00000     0.00  LINEAR    1.42761E-03   130.01    0.00000E+00     0.00
   40.00   320.00     -29.03 -999.99  -29.03    0.00000     0.00  LINEAR    4.69620E-05   154.76    0.00000E+00     0.00
   45.00   320.00      -3.65 -999.99   -3.65    0.00000     0.00  LINEAR    8.72931E-04    -9.14    0.00000E+00     0.00
   50.00   320.00      -5.34 -999.99   -5.34    0.00000     0.00  LINEAR    7.18722E-04    16.60    0.00000E+00     0.00
   55.00   320.00      -5.59 -999.99   -5.59    0.00000     0.00  LINEAR    6.98448E-04  -148.07    0.00000E+00     0.00
   60.00   320.00       2.22 -999.99    2.22    0.00000     0.00  LINEAR    1.71495E-03  -132.84    0.00000E+00     0.00
   65.00   320.00      -2.83 -999.99   -2.83    0.00000     0.00  LINEAR    9.59058E-04  -116.53    0.00000E+00     0.00
   70.00   320.00      -9.98 -999.99   -9.98    0.00000     0.00  LINEAR    4.21127E-04    43.86    0.00000E+00     0.00
   75.00   320.00      -6.57 -999.99   -6.57    0.00000     0.00  LINEAR    6.23336E-04    67.24    0.00000E+00     0.00
   80.00   320.00      -9.56 -999.99   -9.56    0.00000     0.00  LINEAR    4.42030E-04   -86.15    0.00000E+00     0.00
   85.00   320.00      -0.96 -999.99   -0.96    0.00000     0.00  LINEAR    1.18972E-03   -81.44    0.00000E+00     0.00
   90.00   320.00      -8.14 -999.99   -8.14    0.00000     0.00  LINEAR    5.20316E-04   -51.88    0.00000E+00     0.00
    0.00   325.00    -999.99 -999.99 -999.99    0.00000     0.00            0.00000E+00     0.00    0.00000E+00     0.00
    5.00   325.00      -5.57 -999.99   -5.57    0.00000     0.00  LINEAR    6.99590E-04   -37.54    0.00000E+00     0.00
   10.00   325.00       0.94 -999.99    0.94    0.00000     0.00  LINEAR    1.48114E-03    -8.79    0.00000E+00     0.00
   15.00   325.00       5.44 -999.99    5.44    0.00000     0.00  LINEAR    2.48530E-03    25.19    0.00000E+00     0.00
   20.00   325.00       7.07 -999.99    7.07    0.00000     0.00  LINEAR    2.99933E-03    52.41    0.00000E+00     0.00
   25.00   325.00       6.79 -999.99    6.79    0.00000     0.00  LINEAR    2.90391E-03    80.21    0.00000E+00     0.00
   30.00   325.00       5.63 -999.99    5.63    0.00000     0.00  LINEAR    2.54174E-03   111.86    0.00000E+00     0.00
   35.00   325.00       0.71 -999.99    0.71    0.00000     0.00  LINEAR    1.44175E-03   140.61    0.00000E+00     0.00
   40.00   325.00     -25.13 -999.99  -25.13    0.00000     0.00  LINEAR    7.36028E-05  -177.92    0.00000E+00     0.00
   45.00   325.00      -4.71 -999.99   -4.71    0.00000     0.00  LINEAR    7.72592E-04    -0.95    0.00000E+00     0.00
   50.00   325.00      -7.91 -999.99   -7.91    0.00000     0.00  LINEAR    5.34242E-04    31.09    0.00000E+00     0.00
   55.00   325.00      -5.77 -999.99   -5.77    0.00000     0.00  LINEAR    6.84091E-04  -132.41    0.00000E+00     0.00
   60.00   325.00       1.34 -999.99    1.34    0.00000     0.00  LINEAR    1.55034E-03  -108.54    0.00000E+00     0.00
   65.00   325.00      -2.68 -999.99   -2.68    0.00000     0.00  LINEAR    9.76566E-04   -85.63    0.00000E+00     0.00
   70.00   325.00     -12.09 -999.99  -12.09    0.00000     0.00  LINEAR    3.30308E-04    58.58    0.00000E+00     0.00
   75.00   325.00      -6.97 -999.99   -6.97    0.00000     0.00  LINEAR    5.95526E-04    91.61    0.00000E+00     0.00
   80.00   325.00      -9.33 -999.99   -9.33    0.00000     0.00  LINEAR    4.53687E-04   -51.37    0.00000E+00     0.00
   85.00   325.00      -0.69 -999.99   -0.69    0.00000     0.00  LINEAR    1.22669E-03   -52.57    0.00000E+00     0.00
   90.00   325.00      -7.54 -999.99   -7.54    0.00000     0.00  LINEAR    5.57806E-04   -22.24    0.00000E+00     0.00
    0.00   330.00    -999.99 -999.99 -999.99    0.00000     0.00            0.00000E+00     0.00    0.00000E+00     0.00
    5.00   330.00      -5.60 -999.99   -5.60    0.00000     0.00  LINEAR    6.97287E-04   -35.65    0.00000E+00     0.00
   10.00   330.00       0.86 -999.99    0.86    0.00000     0.00  LINEAR    1.46632E-03    -5.85    0.00000E+00     0.00
   15.00   330.00       5.18 -999.99    5.18    0.00000     0.00  LINEAR    2.41297E-03    29.07    0.00000E+00     0.00
   20.00   330.00       6.74 -999.99    6.74    0.00000     0.00  LINEAR    2.88721E-03    58.72    0.00000E+00     0.00
   25.00   330.00       6.65 -999.99    6.65    0.00000     0.00  LINEAR    2.85819E-03    87.68    0.00000E+00     0.00
   30.00   330.00       5.65 -999.99    5.65    0.00000     0.00  LINEAR    2.54588E-03   119.38    0.00000E+00     0.00
   35.00   330.00       0.80 -999.99    0.80    0.00000     0.00  LINEAR    1.45780E-03   149.40    0.00000E+00     0.00
   40.00   330.00     -29.16 -999.99  -29.16    0.00000     0.00  LINEAR    4.62982E-05    75.06    0.00000E+00     0.00
   45.00   330.00      -4.00 -999.99   -4.00    0.00000     0.00  LINEAR    8.38030E-04    17.13    0.00000E+00     0.00
   50.00   330.00      -8.22 -999.99   -8.22    0.00000     0.00  LINEAR    5.15598E-04    45.37    0.00000E+00     0.00
   55.00   330.00      -5.36 -999.99   -5.36    0.00000     0.00  LINEAR    7.16847E-04  -101.29    0.00000E+00     0.00
   60.00   330.00       1.46 -999.99    1.46    0.00000     0.00  LINEAR    1.57221E-03   -79.13    0.00000E+00     0.00
   65.00   330.00      -3.83 -999.99   -3.83    0.00000     0.00  LINEAR    8.54893E-04   -50.86    0.00000E+00     0.00
   70.00   330.00      -7.11 -999.99   -7.11    0.00000     0.00  LINEAR    5.85920E-04    96.55    0.00000E+00     0.00
   75.00   330.00      -6.23 -999.99   -6.23    0.00000     0.00  LINEAR    6.48568E-04   122.19    0.00000E+00     0.00
   80.00   330.00      -6.15 -999.99   -6.15    0.00000     0.00  LINEAR    6.54481E-04   -43.54    0.00000E+00     0.00
   85.00   330.00       0.90 -999.99    0.90    0.00000     0.00  LINEAR    1.47395E-03   -35.82    0.00000E+00     0.00
   90.00   330.00      -6.78 -999.99   -6.78    0.00000     0.00  LINEAR    6.08720E-04   -11.22    0.00000E+00     0.00
    0.00   335.00    -999.99 -999.99 -999.99    0.00000     0.00            0.00000E+00     0.00    0.00000E+00     0.00
    5.00   335.00      -5.63 -999.99   -5.63    0.00000     0.00  LINEAR    6.95026E-04   -34.05    0.00000E+00     0.00
   10.00   335.00       0.74 -999.99    0.74    0.00000     0.00  LINEAR    1.44654E-03    -3.73    0.00000E+00     0.00
   15.00   335.00       4.85 -999.99    4.85    0.00000     0.00  LINEAR    2.32179E-03    32.10    0.00000E+00     0.00
   20.00   335.00       6.45 -999.99    6.45    0.00000     0.00  LINEAR    2.79280E-03    64.97    0.00000E+00     0.00
   25.00   335.00       6.64 -999.99    6.64    0.00000     0.00  LINEAR    2.85515E-03    95.31    0.00000E+00     0.00
   30.00   335.00       5.74 -999.99    5.74    0.00000     0.00  LINEAR    2.57398E-03   127.15    0.00000E+00     0.00
   35.00   335.00       0.85 -999.99    0.85    0.00000     0.00  LINEAR    1.46534E-03   157.14    0.00000E+00     0.00
   40.00   335.00     -13.56 -999.99  -13.56    0.00000     0.00  LINEAR    2.78766E-04    55.21    0.00000E+00     0.00
   45.00   335.00      -1.89 -999.99   -1.89    0.00000     0.00  LINEAR    1.06934E-03    39.00    0.00000E+00     0.00
   50.00   335.00      -6.97 -999.99   -6.97    0.00000     0.00  LINEAR    5.95562E-04    62.41    0.00000E+00     0.00
   55.00   335.00      -5.25 -999.99   -5.25    0.00000     0.00  LINEAR    7.25911E-04   -83.36    0.00000E+00     0.00
   60.00   335.00       1.37 -999.99    1.37    0.00000     0.00  LINEAR    1.55604E-03   -60.70    0.00000E+00     0.00
   65.00   335.00      -3.94 -999.99   -3.94    0.00000     0.00  LINEAR    8.44539E-04   -25.92    0.00000E+00     0.00
   70.00   335.00      -6.63 -999.99   -6.63    0.00000     0.00  LINEAR    6.19684E-04   109.51    0.00000E+00     0.00
   75.00   335.00      -6.67 -999.99   -6.67    0.00000     0.00  LINEAR    6.16392E-04   140.77    0.00000E+00     0.00
   80.00   335.00      -6.26 -999.99   -6.26    0.00000     0.00  LINEAR    6.46325E-04   -24.67    0.00000E+00     0.00
   85.00   335.00       0.69 -999.99    0.69    0.00000     0.00  LINEAR    1.43865E-03   -15.81    0.00000E+00     0.00
   90.00   335.00      -6.61 -999.99   -6.61    0.00000     0.00  LINEAR    6.21165E-04     8.83    0.00000E+00     0.00
    0.00   340.00    -999.99 -999.99 -999.99    0.00000     0.00            0.00000E+00     0.00    0.00000E+00     0.00
    5.00   340.00      -5.66 -999.99   -5.66    0.00000     0.00  LINEAR    6.92936E-04   -32.74    0.00000E+00     0.00
   10.00   340.00       0.60 -999.99    0.60    0.00000     0.00  LINEAR    1.42455E-03    -2.32    0.00000E+00     0.00
   15.00   340.00       4.49 -999.99    4.49    0.00000     0.00  LINEAR    2.22798E-03    34.54    0.00000E+00     0.00
   20.00   340.00       6.29 -999.99    6.29    0.00000     0.00  LINEAR    2.74016E-03    71.39    0.00000E+00     0.00
   25.00   340.00       6.75 -999.99    6.75    0.00000     0.00  LINEAR    2.88904E-03   103.38    0.00000E+00     0.00
   30.00   340.00       5.82 -999.99    5.82    0.00000     0.00  LINEAR    2.59585E-03   135.31    0.00000E+00     0.00
   35.00   340.00       0.83 -999.99    0.83    0.00000     0.00  LINEAR    1.46191E-03   164.41    0.00000E+00     0.00
   40.00   340.00      -9.28 -999.99   -9.28    0.00000     0.00  LINEAR    4.56367E-04    60.52    0.00000E+00     0.00
   45.00   340.00      -0.78 -999.99   -0.78    0.00000     0.00  LINEAR    1.21437E-03    52.97    0.00000E+00     0.00
   50.00   340.00      -6.41 -999.99   -6.41    0.00000     0.00  LINEAR    6.35011E-04    77.35    0.00000E+00     0.00
   55.00   340.00      -5.71 -999.99   -5.71    0.00000     0.00  LINEAR    6.88976E-04   -82.48    0.00000E+00     0.00
   60.00   340.00       1.57 -999.99    1.57    0.00000     0.00  LINEAR    1.59168E-03   -59.86    0.00000E+00     0.00
   65.00   340.00      -3.15 -999.99   -3.15    0.00000     0.00  LINEAR    9.24794E-04   -34.34    0.00000E+00     0.00
   70.00   340.00      -9.14 -999.99   -9.14    0.00000     0.00  LINEAR    4.64168E-04   124.46    0.00000E+00     0.00
   75.00   340.00      -6.58 -999.99   -6.58    0.00000     0.00  LINEAR    6.23097E-04   150.29    0.00000E+00     0.00
   80.00   340.00      -7.05 -999.99   -7.05    0.00000     0.00  LINEAR    5.89925E-04    -5.91    0.00000E+00     0.00
   85.00   340.00       0.36 -999.99    0.36    0.00000     0.00  LINEAR    1.38548E-03    -1.25    0.00000E+00     0.00
   90.00   340.00      -7.10 -999.99   -7.10    0.00000     0.00  LINEAR    5.86612E-04    24.13    0.00000E+00     0.00
    0.00   345.00    -999.99 -999.99 -999.99    0.00000     0.00            0.00000E+00     0.00    0.00000E+00     0.00
    5.00   345.00      -5.68 -999.99   -5.68    0.00000     0.00  LINEAR    6.91145E-04   -31.72    0.00000E+00     0.00
   10.00   345.00       0.47 -999.99    0.47    0.00000     0.00  LINEAR    1.40345E-03    -1.46    0.00000E+00     0.00
   15.00   345.00       4.16 -999.99    4.16    0.00000     0.00  LINEAR    2.14491E-03    36.54    0.00000E+00     0.00
   20.00   345.00       6.26 -999.99    6.26    0.00000     0.00  LINEAR    2.73323E-03    77.58    0.00000E+00     0.00
   25.00   345.00       6.90 -999.99    6.90    0.00000     0.00  LINEAR    2.94087E-03   111.29    0.00000E+00     0.00
   30.00   345.00       5.80 -999.99    5.80    0.00000     0.00  LINEAR    2.59135E-03   142.94    0.00000E+00     0.00
   35.00   345.00       0.81 -999.99    0.81    0.00000     0.00  LINEAR    1.45846E-03   171.47    0.00000E+00     0.00
   40.00   345.00     -10.28 -999.99  -10.28    0.00000     0.00  LINEAR    4.07096E-04    65.87    0.00000E+00     0.00
   45.00   345.00      -1.30 -999.99   -1.30    0.00000     0.00  LINEAR    1.14384E-03    60.38    0.00000E+00     0.00
   50.00   345.00      -6.83 -999.99   -6.83    0.00000     0.00  LINEAR    6.05053E-04    86.08    0.00000E+00     0.00
   55.00   345.00      -5.12 -999.99   -5.12    0.00000     0.00  LINEAR    7.37096E-04   -83.01    0.00000E+00     0.00
   60.00   345.00       2.22 -999.99    2.22    0.00000     0.00  LINEAR    1.71617E-03   -61.95    0.00000E+00     0.00
   65.00   345.00      -2.52 -999.99   -2.52    0.00000     0.00  LINEAR    9.93837E-04   -39.07    0.00000E+00     0.00
   70.00   345.00      -8.97 -999.99   -8.97    0.00000     0.00  LINEAR    4.72971E-04   139.35    0.00000E+00     0.00
   75.00   345.00      -5.38 -999.99   -5.38    0.00000     0.00  LINEAR    7.15255E-04   163.66    0.00000E+00     0.00
   80.00   345.00      -7.64 -999.99   -7.64    0.00000     0.00  LINEAR    5.51558E-04     6.69    0.00000E+00     0.00
   85.00   345.00       0.52 -999.99    0.52    0.00000     0.00  LINEAR    1.41075E-03    11.78    0.00000E+00     0.00
   90.00   345.00      -8.28 -999.99   -8.28    0.00000     0.00  LINEAR    5.12165E-04    32.38    0.00000E+00     0.00
    0.00   350.00    -999.99 -999.99 -999.99    0.00000     0.00            0.00000E+00     0.00    0.00000E+00     0.00
    5.00   350.00      -5.70 -999.99   -5.70    0.00000     0.00  LINEAR    6.89769E-04   -31.00    0.00000E+00     0.00
   10.00   350.00       0.37 -999.99    0.37    0.00000     0.00  LINEAR    1.38611E-03    -0.99    0.00000E+00     0.00
   15.00   350.00       3.90 -999.99    3.90    0.00000     0.00  LINEAR    2.08139E-03    38.10    0.00000E+00     0.00
   20.00   350.00       6.34 -999.99    6.34    0.00000     0.00  LINEAR    2.75730E-03    82.78    0.00000E+00     0.00
   25.00   350.00       7.05 -999.99    7.05    0.00000     0.00  LINEAR    2.99246E-03   117.99    0.00000E+00     0.00
   30.00   350.00       5.70 -999.99    5.70    0.00000     0.00  LINEAR    2.56204E-03   148.96    0.00000E+00     0.00
   35.00   350.00       0.85 -999.99    0.85    0.00000     0.00  LINEAR    1.46539E-03   177.84    0.00000E+00     0.00
   40.00   350.00     -17.73 -999.99  -17.73    0.00000     0.00  LINEAR    1.72625E-04    71.38    0.00000E+00     0.00
   45.00   350.00      -2.57 -999.99   -2.57    0.00000     0.00  LINEAR    9.88085E-04    64.24    0.00000E+00     0.00
   50.00   350.00      -7.30 -999.99   -7.30    0.00000     0.00  LINEAR    5.73735E-04    89.50    0.00000E+00     0.00
   55.00   350.00      -4.95 -999.99   -4.95    0.00000     0.00  LINEAR    7.51161E-04   -71.38    0.00000E+00     0.00
   60.00   350.00       1.93 -999.99    1.93    0.00000     0.00  LINEAR    1.65869E-03   -52.59    0.00000E+00     0.00
   65.00   350.00      -2.83 -999.99   -2.83    0.00000     0.00  LINEAR    9.59800E-04   -27.22    0.00000E+00     0.00
   70.00   350.00      -8.92 -999.99   -8.92    0.00000     0.00  LINEAR    4.76077E-04   147.50    0.00000E+00     0.00
   75.00   350.00      -4.99 -999.99   -4.99    0.00000     0.00  LINEAR    7.47725E-04   174.77    0.00000E+00     0.00
   80.00   350.00      -7.64 -999.99   -7.64    0.00000     0.00  LINEAR    5.51145E-04    19.55    0.00000E+00     0.00
   85.00   350.00       0.82 -999.99    0.82    0.00000     0.00  LINEAR    1.45973E-03    23.31    0.00000E+00     0.00
   90.00   350.00      -8.38 -999.99   -8.38    0.00000     0.00  LINEAR    5.06083E-04    42.03    0.00000E+00     0.00
    0.00   355.00    -999.99 -999.99 -999.99    0.00000     0.00            0.00000E+00     0.00    0.00000E+00     0.00
    5.00   355.00      -5.71 -999.99   -5.71    0.00000     0.00  LINEAR    6.88902E-04   -30.57    0.00000E+00     0.00
   10.00   355.00       0.30 -999.99    0.30    0.00000     0.00  LINEAR    1.37478E-03    -0.77    0.00000E+00     0.00
   15.00   355.00       3.73 -999.99    3.73    0.00000     0.00  LINEAR    2.04209E-03    39.13    0.00000E+00     0.00
   20.00   355.00       6.43 -999.99    6.43    0.00000     0.00  LINEAR    2.78721E-03    86.24    0.00000E+00     0.00
   25.00   355.00       7.16 -999.99    7.16    0.00000     0.00  LINEAR    3.02973E-03   122.47    0.00000E+00     0.00
   30.00   355.00       5.58 -999.99    5.58    0.00000     0.00  LINEAR    2.52733E-03   152.69    0.00000E+00     0.00
   35.00   355.00       0.93 -999.99    0.93    0.00000     0.00  LINEAR    1.47910E-03  -177.63    0.00000E+00     0.00
   40.00   355.00     -25.30 -999.99  -25.30    0.00000     0.00  LINEAR    7.21742E-05  -116.14    0.00000E+00     0.00
   45.00   355.00      -3.54 -999.99   -3.54    0.00000     0.00  LINEAR    8.83789E-04    66.85    0.00000E+00     0.00
   50.00   355.00      -7.19 -999.99   -7.19    0.00000     0.00  LINEAR    5.80763E-04    91.18    0.00000E+00     0.00
   55.00   355.00      -5.29 -999.99   -5.29    0.00000     0.00  LINEAR    7.22747E-04   -51.07    0.00000E+00     0.00
   60.00   355.00       1.30 -999.99    1.30    0.00000     0.00  LINEAR    1.54265E-03   -35.50    0.00000E+00     0.00
   65.00   355.00      -2.75 -999.99   -2.75    0.00000     0.00  LINEAR    9.68163E-04   -14.79    0.00000E+00     0.00
   70.00   355.00     -10.77 -999.99  -10.77    0.00000     0.00  LINEAR    3.84581E-04   150.19    0.00000E+00     0.00
   75.00   355.00      -5.99 -999.99   -5.99    0.00000     0.00  LINEAR    6.67119E-04   173.68    0.00000E+00     0.00
   80.00   355.00      -8.05 -999.99   -8.05    0.00000     0.00  LINEAR    5.26260E-04    22.25    0.00000E+00     0.00
   85.00   355.00       0.11 -999.99    0.11    0.00000     0.00  LINEAR    1.34538E-03    24.34    0.00000E+00     0.00
   90.00   355.00      -7.99 -999.99   -7.99    0.00000     0.00  LINEAR    5.29427E-04    50.30    0.00000E+00     0.00






 ***** DATA CARD NO. 16   EN   0     0     0     0  0.00000E+00  0.00000E+00  0.00000E+00  0.00000E+00  0.00000E+00  0.00000E+00

 RUN TIME =     0.219
