1



                                 *********************************************

                                    NUMERICAL ELECTROMAGNETICS CODE (NEC-2D)

                                 *********************************************




                                     - - - - COMMENTS - - - -


                                                                                                     
                                                                                                     




                                 - - - STRUCTURE SPECIFICATION - - -

                                     COORDINATES MUST BE INPUT IN
                                     METERS OR BE SCALED TO METERS
                                     BEFORE STRUCTURE INPUT IS ENDED


  WIRE                                                                               NO. OF    FIRST  LAST     TAG
  NO.        X1         Y1         Z1          X2         Y2         Z2      RADIUS   SEG.     SEG.   SEG.     NO.
     1   -7.50000   -5.00000   -5.00000    -7.50000   -5.00000    5.00000    0.00100     20        1    20     101
     2   -2.50000   -5.00000   -5.00000    -2.50000   -5.00000    5.00000    0.00100     20       21    40     102
     3    2.50000   -5.00000   -5.00000     2.50000   -5.00000    5.00000    0.00100     20       41    60     103
     4    7.50000   -5.00000   -5.00000     7.50000   -5.00000    5.00000    0.00100     20       61    80     104
     5   -7.50000    0.00000   -5.00000    -7.50000    0.00000    5.00000    0.00100     20       81   100     201
     6   -2.50000    0.00000   -5.00000    -2.50000    0.00000    5.00000    0.00100     20      101   120     202
     7    2.50000    0.00000   -5.00000     2.50000    0.00000    5.00000    0.00100     20      121   140     203
     8    7.50000    0.00000   -5.00000     7.50000    0.00000    5.00000    0.00100     20      141   160     204
     9   -7.50000    5.00000   -5.00000    -7.50000    5.00000    5.00000    0.00100     20      161   180     301
    10   -2.50000    5.00000   -5.00000    -2.50000    5.00000    5.00000    0.00100     20      181   200     302
    11    2.50000    5.00000   -5.00000     2.50000    5.00000    5.00000    0.00100     20      201   220     303
    12    7.50000    5.00000   -5.00000     7.50000    5.00000    5.00000    0.00100     20      221   240     304

   TOTAL SEGMENTS USED=  240     NO. SEG. IN A SYMMETRIC CELL=  240     SYMMETRY FLAG=  0


         - MULTIPLE WIRE JUNCTIONS -
 JUNCTION    SEGMENTS  (- FOR END 1, + FOR END 2)
  NONE




                                 - - - - SEGMENTATION DATA - - - -

                                        COORDINATES IN METERS

                         I+ AND I- INDICATE THE SEGMENTS BEFORE AND AFTER I


  SEG.   COORDINATES OF SEG. CENTER     SEG.     ORIENTATION ANGLES    WIRE    CONNECTION DATA   TAG
  NO.       X         Y         Z       LENGTH     ALPHA     BETA      RADIUS    I-   I    I+    NO.
     1  -7.50000  -5.00000  -4.75000   0.50000   90.00000   0.00000   0.00100     0    1    2    101
     2  -7.50000  -5.00000  -4.25000   0.50000   90.00000   0.00000   0.00100     1    2    3    101
     3  -7.50000  -5.00000  -3.75000   0.50000   90.00000   0.00000   0.00100     2    3    4    101
     4  -7.50000  -5.00000  -3.25000   0.50000   90.00000   0.00000   0.00100     3    4    5    101
     5  -7.50000  -5.00000  -2.75000   0.50000   90.00000   0.00000   0.00100     4    5    6    101
     6  -7.50000  -5.00000  -2.25000   0.50000   90.00000   0.00000   0.00100     5    6    7    101
     7  -7.50000  -5.00000  -1.75000   0.50000   90.00000   0.00000   0.00100     6    7    8    101
     8  -7.50000  -5.00000  -1.25000   0.50000   90.00000   0.00000   0.00100     7    8    9    101
     9  -7.50000  -5.00000  -0.75000   0.50000   90.00000   0.00000   0.00100     8    9   10    101
    10  -7.50000  -5.00000  -0.25000   0.50000   90.00000   0.00000   0.00100     9   10   11    101
    11  -7.50000  -5.00000   0.25000   0.50000   90.00000   0.00000   0.00100    10   11   12    101
    12  -7.50000  -5.00000   0.75000   0.50000   90.00000   0.00000   0.00100    11   12   13    101
    13  -7.50000  -5.00000   1.25000   0.50000   90.00000   0.00000   0.00100    12   13   14    101
    14  -7.50000  -5.00000   1.75000   0.50000   90.00000   0.00000   0.00100    13   14   15    101
    15  -7.50000  -5.00000   2.25000   0.50000   90.00000   0.00000   0.00100    14   15   16    101
    16  -7.50000  -5.00000   2.75000   0.50000   90.00000   0.00000   0.00100    15   16   17    101
    17  -7.50000  -5.00000   3.25000   0.50000   90.00000   0.00000   0.00100    16   17   18    101
    18  -7.50000  -5.00000   3.75000   0.50000   90.00000   0.00000   0.00100    17   18   19    101
    19  -7.50000  -5.00000   4.25000   0.50000   90.00000   0.00000   0.00100    18   19   20    101
    20  -7.50000  -5.00000   4.75000   0.50000   90.00000   0.00000   0.00100    19   20    0    101
    21  -2.50000  -5.00000  -4.75000   0.50000   90.00000   0.00000   0.00100     0   21   22    102
    22  -2.50000  -5.00000  -4.25000   0.50000   90.00000   0.00000   0.00100    21   22   23    102
    23  -2.50000  -5.00000  -3.75000   0.50000   90.00000   0.00000   0.00100    22   23   24    102
    24  -2.50000  -5.00000  -3.25000   0.50000   90.00000   0.00000   0.00100    23   24   25    102
    25  -2.50000  -5.00000  -2.75000   0.50000   90.00000   0.00000   0.00100    24   25   26    102
    26  -2.50000  -5.00000  -2.25000   0.50000   90.00000   0.00000   0.00100    25   26   27    102
    27  -2.50000  -5.00000  -1.75000   0.50000   90.00000   0.00000   0.00100    26   27   28    102
    28  -2.50000  -5.00000  -1.25000   0.50000   90.00000   0.00000   0.00100    27   28   29    102
    29  -2.50000  -5.00000  -0.75000   0.50000   90.00000   0.00000   0.00100    28   29   30    102
    30  -2.50000  -5.00000  -0.25000   0.50000   90.00000   0.00000   0.00100    29   30   31    102
    31  -2.50000  -5.00000   0.25000   0.50000   90.00000   0.00000   0.00100    30   31   32    102
    32  -2.50000  -5.00000   0.75000   0.50000   90.00000   0.00000   0.00100    31   32   33    102
    33  -2.50000  -5.00000   1.25000   0.50000   90.00000   0.00000   0.00100    32   33   34    102
    34  -2.50000  -5.00000   1.75000   0.50000   90.00000   0.00000   0.00100    33   34   35    102
    35  -2.50000  -5.00000   2.25000   0.50000   90.00000   0.00000   0.00100    34   35   36    102
    36  -2.50000  -5.00000   2.75000   0.50000   90.00000   0.00000   0.00100    35   36   37    102
    37  -2.50000  -5.00000   3.25000   0.50000   90.00000   0.00000   0.00100    36   37   38    102
    38  -2.50000  -5.00000   3.75000   0.50000   90.00000   0.00000   0.00100    37   38   39    102
    39  -2.50000  -5.00000   4.25000   0.50000   90.00000   0.00000   0.00100    38   39   40    102
    40  -2.50000  -5.00000   4.75000   0.50000   90.00000   0.00000   0.00100    39   40    0    102
    41   2.50000  -5.00000  -4.75000   0.50000   90.00000   0.00000   0.00100     0   41   42    103
    42   2.50000  -5.00000  -4.25000   0.50000   90.00000   0.00000   0.00100    41   42   43    103
    43   2.50000  -5.00000  -3.75000   0.50000   90.00000   0.00000   0.00100    42   43   44    103
    44   2.50000  -5.00000  -3.25000   0.50000   90.00000   0.00000   0.00100    43   44   45    103
    45   2.50000  -5.00000  -2.75000   0.50000   90.00000   0.00000   0.00100    44   45   46    103
    46   2.50000  -5.00000  -2.25000   0.50000   90.00000   0.00000   0.00100    45   46   47    103
    47   2.50000  -5.00000  -1.75000   0.50000   90.00000   0.00000   0.00100    46   47   48    103
    48   2.50000  -5.00000  -1.25000   0.50000   90.00000   0.00000   0.00100    47   48   49    103
    49   2.50000  -5.00000  -0.75000   0.50000   90.00000   0.00000   0.00100    48   49   50    103
    50   2.50000  -5.00000  -0.25000   0.50000   90.00000   0.00000   0.00100    49   50   51    103
    51   2.50000  -5.00000   0.25000   0.50000   90.00000   0.00000   0.00100    50   51   52    103
    52   2.50000  -5.00000   0.75000   0.50000   90.00000   0.00000   0.00100    51   52   53    103
    53   2.50000  -5.00000   1.25000   0.50000   90.00000   0.00000   0.00100    52   53   54    103
    54   2.50000  -5.00000   1.75000   0.50000   90.00000   0.00000   0.00100    53   54   55    103
    55   2.50000  -5.00000   2.25000   0.50000   90.00000   0.00000   0.00100    54   55   56    103
    56   2.50000  -5.00000   2.75000   0.50000   90.00000   0.00000   0.00100    55   56   57    103
    57   2.50000  -5.00000   3.25000   0.50000   90.00000   0.00000   0.00100    56   57   58    103
    58   2.50000  -5.00000   3.75000   0.50000   90.00000   0.00000   0.00100    57   58   59    103
    59   2.50000  -5.00000   4.25000   0.50000   90.00000   0.00000   0.00100    58   59   60    103
    60   2.50000  -5.00000   4.75000   0.50000   90.00000   0.00000   0.00100    59   60    0    103
    61   7.50000  -5.00000  -4.75000   0.50000   90.00000   0.00000   0.00100     0   61   62    104
    62   7.50000  -5.00000  -4.25000   0.50000   90.00000   0.00000   0.00100    61   62   63    104
    63   7.50000  -5.00000  -3.75000   0.50000   90.00000   0.00000   0.00100    62   63   64    104
    64   7.50000  -5.00000  -3.25000   0.50000   90.00000   0.00000   0.00100    63   64   65    104
    65   7.50000  -5.00000  -2.75000   0.50000   90.00000   0.00000   0.00100    64   65   66    104
    66   7.50000  -5.00000  -2.25000   0.50000   90.00000   0.00000   0.00100    65   66   67    104
    67   7.50000  -5.00000  -1.75000   0.50000   90.00000   0.00000   0.00100    66   67   68    104
    68   7.50000  -5.00000  -1.25000   0.50000   90.00000   0.00000   0.00100    67   68   69    104
    69   7.50000  -5.00000  -0.75000   0.50000   90.00000   0.00000   0.00100    68   69   70    104
    70   7.50000  -5.00000  -0.25000   0.50000   90.00000   0.00000   0.00100    69   70   71    104
    71   7.50000  -5.00000   0.25000   0.50000   90.00000   0.00000   0.00100    70   71   72    104
    72   7.50000  -5.00000   0.75000   0.50000   90.00000   0.00000   0.00100    71   72   73    104
    73   7.50000  -5.00000   1.25000   0.50000   90.00000   0.00000   0.00100    72   73   74    104
    74   7.50000  -5.00000   1.75000   0.50000   90.00000   0.00000   0.00100    73   74   75    104
    75   7.50000  -5.00000   2.25000   0.50000   90.00000   0.00000   0.00100    74   75   76    104
    76   7.50000  -5.00000   2.75000   0.50000   90.00000   0.00000   0.00100    75   76   77    104
    77   7.50000  -5.00000   3.25000   0.50000   90.00000   0.00000   0.00100    76   77   78    104
    78   7.50000  -5.00000   3.75000   0.50000   90.00000   0.00000   0.00100    77   78   79    104
    79   7.50000  -5.00000   4.25000   0.50000   90.00000   0.00000   0.00100    78   79   80    104
    80   7.50000  -5.00000   4.75000   0.50000   90.00000   0.00000   0.00100    79   80    0    104
    81  -7.50000   0.00000  -4.75000   0.50000   90.00000   0.00000   0.00100     0   81   82    201
    82  -7.50000   0.00000  -4.25000   0.50000   90.00000   0.00000   0.00100    81   82   83    201
    83  -7.50000   0.00000  -3.75000   0.50000   90.00000   0.00000   0.00100    82   83   84    201
    84  -7.50000   0.00000  -3.25000   0.50000   90.00000   0.00000   0.00100    83   84   85    201
    85  -7.50000   0.00000  -2.75000   0.50000   90.00000   0.00000   0.00100    84   85   86    201
    86  -7.50000   0.00000  -2.25000   0.50000   90.00000   0.00000   0.00100    85   86   87    201
    87  -7.50000   0.00000  -1.75000   0.50000   90.00000   0.00000   0.00100    86   87   88    201
    88  -7.50000   0.00000  -1.25000   0.50000   90.00000   0.00000   0.00100    87   88   89    201
    89  -7.50000   0.00000  -0.75000   0.50000   90.00000   0.00000   0.00100    88   89   90    201
    90  -7.50000   0.00000  -0.25000   0.50000   90.00000   0.00000   0.00100    89   90   91    201
    91  -7.50000   0.00000   0.25000   0.50000   90.00000   0.00000   0.00100    90   91   92    201
    92  -7.50000   0.00000   0.75000   0.50000   90.00000   0.00000   0.00100    91   92   93    201
    93  -7.50000   0.00000   1.25000   0.50000   90.00000   0.00000   0.00100    92   93   94    201
    94  -7.50000   0.00000   1.75000   0.50000   90.00000   0.00000   0.00100    93   94   95    201
    95  -7.50000   0.00000   2.25000   0.50000   90.00000   0.00000   0.00100    94   95   96    201
    96  -7.50000   0.00000   2.75000   0.50000   90.00000   0.00000   0.00100    95   96   97    201
    97  -7.50000   0.00000   3.25000   0.50000   90.00000   0.00000   0.00100    96   97   98    201
    98  -7.50000   0.00000   3.75000   0.50000   90.00000   0.00000   0.00100    97   98   99    201
    99  -7.50000   0.00000   4.25000   0.50000   90.00000   0.00000   0.00100    98   99  100    201
   100  -7.50000   0.00000   4.75000   0.50000   90.00000   0.00000   0.00100    99  100    0    201
   101  -2.50000   0.00000  -4.75000   0.50000   90.00000   0.00000   0.00100     0  101  102    202
   102  -2.50000   0.00000  -4.25000   0.50000   90.00000   0.00000   0.00100   101  102  103    202
   103  -2.50000   0.00000  -3.75000   0.50000   90.00000   0.00000   0.00100   102  103  104    202
   104  -2.50000   0.00000  -3.25000   0.50000   90.00000   0.00000   0.00100   103  104  105    202
   105  -2.50000   0.00000  -2.75000   0.50000   90.00000   0.00000   0.00100   104  105  106    202
   106  -2.50000   0.00000  -2.25000   0.50000   90.00000   0.00000   0.00100   105  106  107    202
   107  -2.50000   0.00000  -1.75000   0.50000   90.00000   0.00000   0.00100   106  107  108    202
   108  -2.50000   0.00000  -1.25000   0.50000   90.00000   0.00000   0.00100   107  108  109    202
   109  -2.50000   0.00000  -0.75000   0.50000   90.00000   0.00000   0.00100   108  109  110    202
   110  -2.50000   0.00000  -0.25000   0.50000   90.00000   0.00000   0.00100   109  110  111    202
   111  -2.50000   0.00000   0.25000   0.50000   90.00000   0.00000   0.00100   110  111  112    202
   112  -2.50000   0.00000   0.75000   0.50000   90.00000   0.00000   0.00100   111  112  113    202
   113  -2.50000   0.00000   1.25000   0.50000   90.00000   0.00000   0.00100   112  113  114    202
   114  -2.50000   0.00000   1.75000   0.50000   90.00000   0.00000   0.00100   113  114  115    202
   115  -2.50000   0.00000   2.25000   0.50000   90.00000   0.00000   0.00100   114  115  116    202
   116  -2.50000   0.00000   2.75000   0.50000   90.00000   0.00000   0.00100   115  116  117    202
   117  -2.50000   0.00000   3.25000   0.50000   90.00000   0.00000   0.00100   116  117  118    202
   118  -2.50000   0.00000   3.75000   0.50000   90.00000   0.00000   0.00100   117  118  119    202
   119  -2.50000   0.00000   4.25000   0.50000   90.00000   0.00000   0.00100   118  119  120    202
   120  -2.50000   0.00000   4.75000   0.50000   90.00000   0.00000   0.00100   119  120    0    202
   121   2.50000   0.00000  -4.75000   0.50000   90.00000   0.00000   0.00100     0  121  122    203
   122   2.50000   0.00000  -4.25000   0.50000   90.00000   0.00000   0.00100   121  122  123    203
   123   2.50000   0.00000  -3.75000   0.50000   90.00000   0.00000   0.00100   122  123  124    203
   124   2.50000   0.00000  -3.25000   0.50000   90.00000   0.00000   0.00100   123  124  125    203
   125   2.50000   0.00000  -2.75000   0.50000   90.00000   0.00000   0.00100   124  125  126    203
   126   2.50000   0.00000  -2.25000   0.50000   90.00000   0.00000   0.00100   125  126  127    203
   127   2.50000   0.00000  -1.75000   0.50000   90.00000   0.00000   0.00100   126  127  128    203
   128   2.50000   0.00000  -1.25000   0.50000   90.00000   0.00000   0.00100   127  128  129    203
   129   2.50000   0.00000  -0.75000   0.50000   90.00000   0.00000   0.00100   128  129  130    203
   130   2.50000   0.00000  -0.25000   0.50000   90.00000   0.00000   0.00100   129  130  131    203
   131   2.50000   0.00000   0.25000   0.50000   90.00000   0.00000   0.00100   130  131  132    203
   132   2.50000   0.00000   0.75000   0.50000   90.00000   0.00000   0.00100   131  132  133    203
   133   2.50000   0.00000   1.25000   0.50000   90.00000   0.00000   0.00100   132  133  134    203
   134   2.50000   0.00000   1.75000   0.50000   90.00000   0.00000   0.00100   133  134  135    203
   135   2.50000   0.00000   2.25000   0.50000   90.00000   0.00000   0.00100   134  135  136    203
   136   2.50000   0.00000   2.75000   0.50000   90.00000   0.00000   0.00100   135  136  137    203
   137   2.50000   0.00000   3.25000   0.50000   90.00000   0.00000   0.00100   136  137  138    203
   138   2.50000   0.00000   3.75000   0.50000   90.00000   0.00000   0.00100   137  138  139    203
   139   2.50000   0.00000   4.25000   0.50000   90.00000   0.00000   0.00100   138  139  140    203
   140   2.50000   0.00000   4.75000   0.50000   90.00000   0.00000   0.00100   139  140    0    203
   141   7.50000   0.00000  -4.75000   0.50000   90.00000   0.00000   0.00100     0  141  142    204
   142   7.50000   0.00000  -4.25000   0.50000   90.00000   0.00000   0.00100   141  142  143    204
   143   7.50000   0.00000  -3.75000   0.50000   90.00000   0.00000   0.00100   142  143  144    204
   144   7.50000   0.00000  -3.25000   0.50000   90.00000   0.00000   0.00100   143  144  145    204
   145   7.50000   0.00000  -2.75000   0.50000   90.00000   0.00000   0.00100   144  145  146    204
   146   7.50000   0.00000  -2.25000   0.50000   90.00000   0.00000   0.00100   145  146  147    204
   147   7.50000   0.00000  -1.75000   0.50000   90.00000   0.00000   0.00100   146  147  148    204
   148   7.50000   0.00000  -1.25000   0.50000   90.00000   0.00000   0.00100   147  148  149    204
   149   7.50000   0.00000  -0.75000   0.50000   90.00000   0.00000   0.00100   148  149  150    204
   150   7.50000   0.00000  -0.25000   0.50000   90.00000   0.00000   0.00100   149  150  151    204
   151   7.50000   0.00000   0.25000   0.50000   90.00000   0.00000   0.00100   150  151  152    204
   152   7.50000   0.00000   0.75000   0.50000   90.00000   0.00000   0.00100   151  152  153    204
   153   7.50000   0.00000   1.25000   0.50000   90.00000   0.00000   0.00100   152  153  154    204
   154   7.50000   0.00000   1.75000   0.50000   90.00000   0.00000   0.00100   153  154  155    204
   155   7.50000   0.00000   2.25000   0.50000   90.00000   0.00000   0.00100   154  155  156    204
   156   7.50000   0.00000   2.75000   0.50000   90.00000   0.00000   0.00100   155  156  157    204
   157   7.50000   0.00000   3.25000   0.50000   90.00000   0.00000   0.00100   156  157  158    204
   158   7.50000   0.00000   3.75000   0.50000   90.00000   0.00000   0.00100   157  158  159    204
   159   7.50000   0.00000   4.25000   0.50000   90.00000   0.00000   0.00100   158  159  160    204
   160   7.50000   0.00000   4.75000   0.50000   90.00000   0.00000   0.00100   159  160    0    204
   161  -7.50000   5.00000  -4.75000   0.50000   90.00000   0.00000   0.00100     0  161  162    301
   162  -7.50000   5.00000  -4.25000   0.50000   90.00000   0.00000   0.00100   161  162  163    301
   163  -7.50000   5.00000  -3.75000   0.50000   90.00000   0.00000   0.00100   162  163  164    301
   164  -7.50000   5.00000  -3.25000   0.50000   90.00000   0.00000   0.00100   163  164  165    301
   165  -7.50000   5.00000  -2.75000   0.50000   90.00000   0.00000   0.00100   164  165  166    301
   166  -7.50000   5.00000  -2.25000   0.50000   90.00000   0.00000   0.00100   165  166  167    301
   167  -7.50000   5.00000  -1.75000   0.50000   90.00000   0.00000   0.00100   166  167  168    301
   168  -7.50000   5.00000  -1.25000   0.50000   90.00000   0.00000   0.00100   167  168  169    301
   169  -7.50000   5.00000  -0.75000   0.50000   90.00000   0.00000   0.00100   168  169  170    301
   170  -7.50000   5.00000  -0.25000   0.50000   90.00000   0.00000   0.00100   169  170  171    301
   171  -7.50000   5.00000   0.25000   0.50000   90.00000   0.00000   0.00100   170  171  172    301
   172  -7.50000   5.00000   0.75000   0.50000   90.00000   0.00000   0.00100   171  172  173    301
   173  -7.50000   5.00000   1.25000   0.50000   90.00000   0.00000   0.00100   172  173  174    301
   174  -7.50000   5.00000   1.75000   0.50000   90.00000   0.00000   0.00100   173  174  175    301
   175  -7.50000   5.00000   2.25000   0.50000   90.00000   0.00000   0.00100   174  175  176    301
   176  -7.50000   5.00000   2.75000   0.50000   90.00000   0.00000   0.00100   175  176  177    301
   177  -7.50000   5.00000   3.25000   0.50000   90.00000   0.00000   0.00100   176  177  178    301
   178  -7.50000   5.00000   3.75000   0.50000   90.00000   0.00000   0.00100   177  178  179    301
   179  -7.50000   5.00000   4.25000   0.50000   90.00000   0.00000   0.00100   178  179  180    301
   180  -7.50000   5.00000   4.75000   0.50000   90.00000   0.00000   0.00100   179  180    0    301
   181  -2.50000   5.00000  -4.75000   0.50000   90.00000   0.00000   0.00100     0  181  182    302
   182  -2.50000   5.00000  -4.25000   0.50000   90.00000   0.00000   0.00100   181  182  183    302
   183  -2.50000   5.00000  -3.75000   0.50000   90.00000   0.00000   0.00100   182  183  184    302
   184  -2.50000   5.00000  -3.25000   0.50000   90.00000   0.00000   0.00100   183  184  185    302
   185  -2.50000   5.00000  -2.75000   0.50000   90.00000   0.00000   0.00100   184  185  186    302
   186  -2.50000   5.00000  -2.25000   0.50000   90.00000   0.00000   0.00100   185  186  187    302
   187  -2.50000   5.00000  -1.75000   0.50000   90.00000   0.00000   0.00100   186  187  188    302
   188  -2.50000   5.00000  -1.25000   0.50000   90.00000   0.00000   0.00100   187  188  189    302
   189  -2.50000   5.00000  -0.75000   0.50000   90.00000   0.00000   0.00100   188  189  190    302
   190  -2.50000   5.00000  -0.25000   0.50000   90.00000   0.00000   0.00100   189  190  191    302
   191  -2.50000   5.00000   0.25000   0.50000   90.00000   0.00000   0.00100   190  191  192    302
   192  -2.50000   5.00000   0.75000   0.50000   90.00000   0.00000   0.00100   191  192  193    302
   193  -2.50000   5.00000   1.25000   0.50000   90.00000   0.00000   0.00100   192  193  194    302
   194  -2.50000   5.00000   1.75000   0.50000   90.00000   0.00000   0.00100   193  194  195    302
   195  -2.50000   5.00000   2.25000   0.50000   90.00000   0.00000   0.00100   194  195  196    302
   196  -2.50000   5.00000   2.75000   0.50000   90.00000   0.00000   0.00100   195  196  197    302
   197  -2.50000   5.00000   3.25000   0.50000   90.00000   0.00000   0.00100   196  197  198    302
   198  -2.50000   5.00000   3.75000   0.50000   90.00000   0.00000   0.00100   197  198  199    302
   199  -2.50000   5.00000   4.25000   0.50000   90.00000   0.00000   0.00100   198  199  200    302
   200  -2.50000   5.00000   4.75000   0.50000   90.00000   0.00000   0.00100   199  200    0    302
   201   2.50000   5.00000  -4.75000   0.50000   90.00000   0.00000   0.00100     0  201  202    303
   202   2.50000   5.00000  -4.25000   0.50000   90.00000   0.00000   0.00100   201  202  203    303
   203   2.50000   5.00000  -3.75000   0.50000   90.00000   0.00000   0.00100   202  203  204    303
   204   2.50000   5.00000  -3.25000   0.50000   90.00000   0.00000   0.00100   203  204  205    303
   205   2.50000   5.00000  -2.75000   0.50000   90.00000   0.00000   0.00100   204  205  206    303
   206   2.50000   5.00000  -2.25000   0.50000   90.00000   0.00000   0.00100   205  206  207    303
   207   2.50000   5.00000  -1.75000   0.50000   90.00000   0.00000   0.00100   206  207  208    303
   208   2.50000   5.00000  -1.25000   0.50000   90.00000   0.00000   0.00100   207  208  209    303
   209   2.50000   5.00000  -0.75000   0.50000   90.00000   0.00000   0.00100   208  209  210    303
   210   2.50000   5.00000  -0.25000   0.50000   90.00000   0.00000   0.00100   209  210  211    303
   211   2.50000   5.00000   0.25000   0.50000   90.00000   0.00000   0.00100   210  211  212    303
   212   2.50000   5.00000   0.75000   0.50000   90.00000   0.00000   0.00100   211  212  213    303
   213   2.50000   5.00000   1.25000   0.50000   90.00000   0.00000   0.00100   212  213  214    303
   214   2.50000   5.00000   1.75000   0.50000   90.00000   0.00000   0.00100   213  214  215    303
   215   2.50000   5.00000   2.25000   0.50000   90.00000   0.00000   0.00100   214  215  216    303
   216   2.50000   5.00000   2.75000   0.50000   90.00000   0.00000   0.00100   215  216  217    303
   217   2.50000   5.00000   3.25000   0.50000   90.00000   0.00000   0.00100   216  217  218    303
   218   2.50000   5.00000   3.75000   0.50000   90.00000   0.00000   0.00100   217  218  219    303
   219   2.50000   5.00000   4.25000   0.50000   90.00000   0.00000   0.00100   218  219  220    303
   220   2.50000   5.00000   4.75000   0.50000   90.00000   0.00000   0.00100   219  220    0    303
   221   7.50000   5.00000  -4.75000   0.50000   90.00000   0.00000   0.00100     0  221  222    304
   222   7.50000   5.00000  -4.25000   0.50000   90.00000   0.00000   0.00100   221  222  223    304
   223   7.50000   5.00000  -3.75000   0.50000   90.00000   0.00000   0.00100   222  223  224    304
   224   7.50000   5.00000  -3.25000   0.50000   90.00000   0.00000   0.00100   223  224  225    304
   225   7.50000   5.00000  -2.75000   0.50000   90.00000   0.00000   0.00100   224  225  226    304
   226   7.50000   5.00000  -2.25000   0.50000   90.00000   0.00000   0.00100   225  226  227    304
   227   7.50000   5.00000  -1.75000   0.50000   90.00000   0.00000   0.00100   226  227  228    304
   228   7.50000   5.00000  -1.25000   0.50000   90.00000   0.00000   0.00100   227  228  229    304
   229   7.50000   5.00000  -0.75000   0.50000   90.00000   0.00000   0.00100   228  229  230    304
   230   7.50000   5.00000  -0.25000   0.50000   90.00000   0.00000   0.00100   229  230  231    304
   231   7.50000   5.00000   0.25000   0.50000   90.00000   0.00000   0.00100   230  231  232    304
   232   7.50000   5.00000   0.75000   0.50000   90.00000   0.00000   0.00100   231  232  233    304
   233   7.50000   5.00000   1.25000   0.50000   90.00000   0.00000   0.00100   232  233  234    304
   234   7.50000   5.00000   1.75000   0.50000   90.00000   0.00000   0.00100   233  234  235    304
   235   7.50000   5.00000   2.25000   0.50000   90.00000   0.00000   0.00100   234  235  236    304
   236   7.50000   5.00000   2.75000   0.50000   90.00000   0.00000   0.00100   235  236  237    304
   237   7.50000   5.00000   3.25000   0.50000   90.00000   0.00000   0.00100   236  237  238    304
   238   7.50000   5.00000   3.75000   0.50000   90.00000   0.00000   0.00100   237  238  239    304
   239   7.50000   5.00000   4.25000   0.50000   90.00000   0.00000   0.00100   238  239  240    304
   240   7.50000   5.00000   4.75000   0.50000   90.00000   0.00000   0.00100   239  240    0    304






 ***** DATA CARD NO.  1   GN  -1     0     0     0  1.00000E+01  1.00000E-02  0.00000E+00  0.00000E+00  0.00000E+00  0.00000E+00
 ***** DATA CARD NO.  2   FR   0     0     0     0  1.50000E+02  0.00000E+00  0.00000E+00  0.00000E+00  0.00000E+00  0.00000E+00
 ***** DATA CARD NO.  3   EX   0   101    10     0  1.00000E-09  0.00000E+00  0.00000E+00  0.00000E+00  0.00000E+00  0.00000E+00
 ***** DATA CARD NO.  4   EX   0   102    10     0  1.00000E-09  0.00000E+00  0.00000E+00  0.00000E+00  0.00000E+00  0.00000E+00
 ***** DATA CARD NO.  5   EX   0   103    10     0  1.00000E-09  0.00000E+00  0.00000E+00  0.00000E+00  0.00000E+00  0.00000E+00
 ***** DATA CARD NO.  6   EX   0   104    10     0 -3.64270E-03  2.45200E-03  0.00000E+00  0.00000E+00  0.00000E+00  0.00000E+00
 ***** DATA CARD NO.  7   EX   0   201    10     0  1.00000E-09  0.00000E+00  0.00000E+00  0.00000E+00  0.00000E+00  0.00000E+00
 ***** DATA CARD NO.  8   EX   0   202    10     0  1.00000E-09  0.00000E+00  0.00000E+00  0.00000E+00  0.00000E+00  0.00000E+00
 ***** DATA CARD NO.  9   EX   0   203    10     0  1.00000E-09  0.00000E+00  0.00000E+00  0.00000E+00  0.00000E+00  0.00000E+00
 ***** DATA CARD NO. 10   EX   0   204    10     0  1.00000E-09  0.00000E+00  0.00000E+00  0.00000E+00  0.00000E+00  0.00000E+00
 ***** DATA CARD NO. 11   EX   0   301    10     0  1.00000E-09  0.00000E+00  0.00000E+00  0.00000E+00  0.00000E+00  0.00000E+00
 ***** DATA CARD NO. 12   EX   0   302    10     0  1.00000E-09  0.00000E+00  0.00000E+00  0.00000E+00  0.00000E+00  0.00000E+00
 ***** DATA CARD NO. 13   EX   0   303    10     0  1.00000E-09  0.00000E+00  0.00000E+00  0.00000E+00  0.00000E+00  0.00000E+00
 ***** DATA CARD NO. 14   EX   0   304    10     0  1.00000E-09  0.00000E+00  0.00000E+00  0.00000E+00  0.00000E+00  0.00000E+00
 ***** DATA CARD NO. 15   RP   0    19    72  1010  0.00000E+00  0.00000E+00  5.00000E+00  5.00000E+00  0.00000E+00  0.00000E+00




                                 - - - - - - FREQUENCY - - - - - -

                                    FREQUENCY= 1.5000E+02 MHZ
                                    WAVELENGTH= 1.9987E+00 METERS




                    APPROXIMATE INTEGRATION EMPLOYED FOR SEGMENTS MORE THAN   1.000 WAVELENGTHS APART



                               - - - STRUCTURE IMPEDANCE LOADING - - -

                                   THIS STRUCTURE IS NOT LOADED



                                  - - - ANTENNA ENVIRONMENT - - -

                                            FREE SPACE



                                - - - MATRIX TIMING - - -

                        FILL=    0.031 SEC.,  FACTOR=    0.031 SEC.



                                          - - - ANTENNA INPUT PARAMETERS - - -

   TAG   SEG.    VOLTAGE (VOLTS)         CURRENT (AMPS)         IMPEDANCE (OHMS)        ADMITTANCE (MHOS)      POWER
   NO.   NO.    REAL        IMAG.       REAL        IMAG.       REAL        IMAG.       REAL        IMAG.     (WATTS)
   101    10 1.00000E-09 0.00000E+00-1.84133E-07-2.77046E-08-5.31065E-03 7.99040E-04-1.84133E+02-2.77046E+01-9.20663E-17
   102    30 1.00000E-09 0.00000E+00-8.51778E-08 3.78050E-08-9.80805E-03-4.35317E-03-8.51778E+01 3.78050E+01-4.25889E-17
   103    50 1.00000E-09 0.00000E+00 2.17677E-08-1.67957E-07 7.58893E-04 5.85554E-03 2.17677E+01-1.67957E+02 1.08838E-17
   104    70-3.64270E-03 2.45200E-03-7.41503E-06 1.22770E-05 2.77646E+02 1.29017E+02 2.96210E-03-1.37644E-03 2.85570E-08
   201    90 1.00000E-09 0.00000E+00 9.09875E-08 1.31054E-07 3.57459E-03-5.14868E-03 9.09875E+01 1.31054E+02 4.54938E-17
   202   110 1.00000E-09 0.00000E+00 8.01214E-08 9.03417E-08 5.49489E-03-6.19582E-03 8.01214E+01 9.03417E+01 4.00607E-17
   203   130 1.00000E-09 0.00000E+00-4.19657E-07 5.43224E-08-2.34363E-03-3.03371E-04-4.19657E+02 5.43224E+01-2.09828E-16
   204   150 1.00000E-09 0.00000E+00 2.05123E-08-1.60304E-07 7.85371E-04 6.13767E-03 2.05123E+01-1.60304E+02 1.02562E-17
   301   170 1.00000E-09 0.00000E+00 4.22837E-08 8.99734E-08 4.27838E-03-9.10374E-03 4.22837E+01 8.99734E+01 2.11419E-17
   302   190 1.00000E-09 0.00000E+00 9.72190E-08-9.67064E-08 5.17022E-03 5.14296E-03 9.72190E+01-9.67064E+01 4.86095E-17
   303   210 1.00000E-09 0.00000E+00 9.54064E-08 1.01527E-07 4.91531E-03-5.23063E-03 9.54064E+01 1.01527E+02 4.77032E-17
   304   230 1.00000E-09 0.00000E+00-8.63487E-08 3.72336E-08-9.76526E-03-4.21079E-03-8.63487E+01 3.72336E+01-4.31743E-17



                             - - - CURRENTS AND LOCATION - - -

                                 DISTANCES IN WAVELENGTHS


  SEG.  TAG    COORD. OF SEG. CENTER     SEG.            - - - CURRENT (AMPS) - - -
  NO.   NO.     X        Y        Z      LENGTH     REAL        IMAG.       MAG.        PHASE
     1  101  -3.7525  -2.5017  -2.3766  0.25017  -2.2491E-07 -3.7221E-08  2.2797E-07 -170.603
     2  101  -3.7525  -2.5017  -2.1264  0.25017  -2.2878E-07 -2.9983E-08  2.3073E-07 -172.533
     3  101  -3.7525  -2.5017  -1.8763  0.25017   1.8844E-07  4.7505E-08  1.9433E-07   14.149
     4  101  -3.7525  -2.5017  -1.6261  0.25017   2.1404E-07  5.8209E-08  2.2182E-07   15.214
     5  101  -3.7525  -2.5017  -1.3759  0.25017  -1.5908E-07  1.0406E-09  1.5909E-07  179.625
     6  101  -3.7525  -2.5017  -1.1258  0.25017  -1.5283E-07  1.3716E-08  1.5344E-07  174.872
     7  101  -3.7525  -2.5017  -0.8756  0.25017   2.2716E-07  1.0269E-07  2.4930E-07   24.326
     8  101  -3.7525  -2.5017  -0.6254  0.25017   2.0918E-07  1.1507E-07  2.3874E-07   28.816
     9  101  -3.7525  -2.5017  -0.3753  0.25017  -1.8817E-07  2.0906E-08  1.8932E-07  173.660
    10  101  -3.7525  -2.5017  -0.1251  0.25017  -1.8413E-07 -2.7705E-08  1.8621E-07 -171.443
    11  101  -3.7525  -2.5017   0.1251  0.25017   2.0436E-07  1.9105E-08  2.0525E-07    5.341
    12  101  -3.7525  -2.5017   0.3753  0.25017   1.9309E-07  2.2583E-08  1.9440E-07    6.671
    13  101  -3.7525  -2.5017   0.6254  0.25017  -2.0469E-07 -6.4063E-08  2.1449E-07 -162.621
    14  101  -3.7525  -2.5017   0.8756  0.25017  -2.0470E-07 -9.0672E-08  2.2388E-07 -156.109
    15  101  -3.7525  -2.5017   1.1258  0.25017   1.8446E-07  4.8907E-09  1.8452E-07    1.519
    16  101  -3.7525  -2.5017   1.3759  0.25017   1.8764E-07  6.4690E-08  1.9847E-07   19.022
    17  101  -3.7525  -2.5017   1.6261  0.25017  -1.7557E-07 -3.8211E-09  1.7561E-07 -178.753
    18  101  -3.7525  -2.5017   1.8763  0.25017  -1.2856E-07 -6.0870E-08  1.4225E-07 -154.664
    19  101  -3.7525  -2.5017   2.1264  0.25017   2.8640E-07 -5.1742E-09  2.8644E-07   -1.035
    20  101  -3.7525  -2.5017   2.3766  0.25017   2.4645E-07  3.3023E-08  2.4865E-07    7.632
    21  102  -1.2508  -2.5017  -2.3766  0.25017  -1.1668E-07  6.5824E-08  1.3397E-07  150.571
    22  102  -1.2508  -2.5017  -2.1264  0.25017  -1.0755E-07  2.8240E-08  1.1119E-07  165.287
    23  102  -1.2508  -2.5017  -1.8763  0.25017   9.9934E-08 -1.4442E-07  1.7563E-07  -55.318
    24  102  -1.2508  -2.5017  -1.6261  0.25017   1.1421E-07 -1.3950E-07  1.8029E-07  -50.693
    25  102  -1.2508  -2.5017  -1.3759  0.25017  -6.7723E-08  3.2786E-08  7.5242E-08  154.168
    26  102  -1.2508  -2.5017  -1.1258  0.25017  -1.0123E-07  5.4963E-08  1.1519E-07  151.500
    27  102  -1.2508  -2.5017  -0.8756  0.25017   2.5664E-08 -9.3061E-08  9.6535E-08  -74.582
    28  102  -1.2508  -2.5017  -0.6254  0.25017   8.4424E-09 -1.1443E-07  1.1475E-07  -85.781
    29  102  -1.2508  -2.5017  -0.3753  0.25017  -1.3279E-07  1.9494E-08  1.3421E-07  171.649
    30  102  -1.2508  -2.5017  -0.1251  0.25017  -8.5178E-08  3.7805E-08  9.3191E-08  156.067
    31  102  -1.2508  -2.5017   0.1251  0.25017   1.1836E-07 -7.5586E-08  1.4044E-07  -32.562
    32  102  -1.2508  -2.5017   0.3753  0.25017   1.3710E-07 -6.6368E-08  1.5232E-07  -25.830
    33  102  -1.2508  -2.5017   0.6254  0.25017  -2.8674E-08  5.4650E-08  6.1716E-08  117.685
    34  102  -1.2508  -2.5017   0.8756  0.25017  -6.0273E-08  2.9553E-08  6.7129E-08  153.880
    35  102  -1.2508  -2.5017   1.1258  0.25017   4.2556E-08 -1.0232E-07  1.1081E-07  -67.416
    36  102  -1.2508  -2.5017   1.3759  0.25017  -1.1830E-08 -5.0611E-08  5.1975E-08 -103.156
    37  102  -1.2508  -2.5017   1.6261  0.25017  -1.7653E-07  1.4570E-07  2.2889E-07  140.464
    38  102  -1.2508  -2.5017   1.8763  0.25017  -1.1857E-07  1.5873E-07  1.9813E-07  126.761
    39  102  -1.2508  -2.5017   2.1264  0.25017   1.1077E-07 -1.6627E-08  1.1201E-07   -8.536
    40  102  -1.2508  -2.5017   2.3766  0.25017   1.1531E-07 -6.0732E-08  1.3033E-07  -27.774
    41  103   1.2508  -2.5017  -2.3766  0.25017   6.7116E-08 -2.0483E-07  2.1554E-07  -71.857
    42  103   1.2508  -2.5017  -2.1264  0.25017  -1.1066E-08 -2.5571E-08  2.7863E-08 -113.401
    43  103   1.2508  -2.5017  -1.8763  0.25017  -2.0741E-07  4.0250E-07  4.5279E-07  117.262
    44  103   1.2508  -2.5017  -1.6261  0.25017  -1.2039E-07  1.5990E-07  2.0016E-07  126.975
    45  103   1.2508  -2.5017  -1.3759  0.25017   2.2205E-07 -3.4429E-07  4.0968E-07  -57.180
    46  103   1.2508  -2.5017  -1.1258  0.25017   3.5202E-07 -1.3867E-07  3.7835E-07  -21.501
    47  103   1.2508  -2.5017  -0.8756  0.25017   1.0857E-07  3.7791E-07  3.9320E-07   73.972
    48  103   1.2508  -2.5017  -0.6254  0.25017  -1.3608E-07  1.7440E-07  2.2121E-07  127.963
    49  103   1.2508  -2.5017  -0.3753  0.25017  -1.0737E-07 -3.7366E-07  3.8878E-07 -106.032
    50  103   1.2508  -2.5017  -0.1251  0.25017   2.1768E-08 -1.6796E-07  1.6936E-07  -82.615
    51  103   1.2508  -2.5017   0.1251  0.25017   6.1415E-08  4.6863E-07  4.7264E-07   82.534
    52  103   1.2508  -2.5017   0.3753  0.25017   8.8371E-08  3.7216E-07  3.8251E-07   76.642
    53  103   1.2508  -2.5017   0.6254  0.25017   1.2172E-07 -2.4710E-07  2.7545E-07  -63.776
    54  103   1.2508  -2.5017   0.8756  0.25017   8.1787E-09 -2.4003E-07  2.4017E-07  -88.048
    55  103   1.2508  -2.5017   1.1258  0.25017  -1.7437E-07  2.6605E-07  3.1810E-07  123.241
    56  103   1.2508  -2.5017   1.3759  0.25017  -1.0940E-07  1.7328E-07  2.0493E-07  122.266
    57  103   1.2508  -2.5017   1.6261  0.25017   1.5798E-07 -4.1224E-07  4.4147E-07  -69.033
    58  103   1.2508  -2.5017   1.8763  0.25017   1.7702E-07 -3.8675E-07  4.2534E-07  -65.407
    59  103   1.2508  -2.5017   2.1264  0.25017  -1.0967E-07  2.1123E-07  2.3801E-07  117.437
    60  103   1.2508  -2.5017   2.3766  0.25017  -1.6440E-07  2.7389E-07  3.1944E-07  120.974
    61  104   3.7525  -2.5017  -2.3766  0.25017  -5.7409E-06  1.3514E-05  1.4683E-05  113.016
    62  104   3.7525  -2.5017  -2.1264  0.25017  -6.6882E-06  1.1062E-05  1.2927E-05  121.157
    63  104   3.7525  -2.5017  -1.8763  0.25017   4.8076E-06 -1.3947E-05  1.4752E-05  -70.981
    64  104   3.7525  -2.5017  -1.6261  0.25017   6.9098E-06 -1.0597E-05  1.2651E-05  -56.894
    65  104   3.7525  -2.5017  -1.3759  0.25017  -4.4502E-06  1.4102E-05  1.4787E-05  107.514
    66  104   3.7525  -2.5017  -1.1258  0.25017  -7.1224E-06  1.0386E-05  1.2594E-05  124.441
    67  104   3.7525  -2.5017  -0.8756  0.25017   4.2617E-06 -1.4278E-05  1.4900E-05  -73.380
    68  104   3.7525  -2.5017  -0.6254  0.25017   7.4909E-06 -1.0213E-05  1.2665E-05  -53.740
    69  104   3.7525  -2.5017  -0.3753  0.25017  -4.1215E-06  1.4705E-05  1.5271E-05  105.657
    70  104   3.7525  -2.5017  -0.1251  0.25017  -7.4150E-06  1.2277E-05  1.4343E-05  121.131
    71  104   3.7525  -2.5017   0.1251  0.25017   8.5747E-06 -5.1941E-06  1.0025E-05  -31.205
    72  104   3.7525  -2.5017   0.3753  0.25017   7.6545E-06 -9.9350E-06  1.2542E-05  -52.387
    73  104   3.7525  -2.5017   0.6254  0.25017  -8.5634E-06  5.6541E-06  1.0262E-05  146.565
    74  104   3.7525  -2.5017   0.8756  0.25017  -7.5758E-06  9.7825E-06  1.2373E-05  127.755
    75  104   3.7525  -2.5017   1.1258  0.25017   8.4869E-06 -5.9574E-06  1.0369E-05  -35.067
    76  104   3.7525  -2.5017   1.3759  0.25017   7.6488E-06 -9.6594E-06  1.2321E-05  -51.626
    77  104   3.7525  -2.5017   1.6261  0.25017  -8.4056E-06  6.2319E-06  1.0464E-05  143.447
    78  104   3.7525  -2.5017   1.8763  0.25017  -7.8198E-06  9.4669E-06  1.2279E-05  129.557
    79  104   3.7525  -2.5017   2.1264  0.25017   8.4143E-06 -6.7069E-06  1.0760E-05  -38.558
    80  104   3.7525  -2.5017   2.3766  0.25017   8.4040E-06 -8.9001E-06  1.2241E-05  -46.642
    81  201  -3.7525   0.0000  -2.3766  0.25017   1.1531E-07  1.7426E-07  2.0895E-07   56.507
    82  201  -3.7525   0.0000  -2.1264  0.25017   1.1344E-07  1.6900E-07  2.0354E-07   56.130
    83  201  -3.7525   0.0000  -1.8763  0.25017  -9.9575E-08 -1.6738E-07  1.9476E-07 -120.749
    84  201  -3.7525   0.0000  -1.6261  0.25017  -9.6610E-08 -1.9621E-07  2.1870E-07 -116.215
    85  201  -3.7525   0.0000  -1.3759  0.25017   1.1040E-07  9.1918E-08  1.4366E-07   39.780
    86  201  -3.7525   0.0000  -1.1258  0.25017   1.1260E-07  8.3375E-08  1.4010E-07   36.519
    87  201  -3.7525   0.0000  -0.8756  0.25017  -7.3475E-08 -2.2733E-07  2.3891E-07 -107.911
    88  201  -3.7525   0.0000  -0.6254  0.25017  -5.6372E-08 -2.2535E-07  2.3229E-07 -104.044
    89  201  -3.7525   0.0000  -0.3753  0.25017   1.2821E-07  9.9568E-08  1.6233E-07   37.832
    90  201  -3.7525   0.0000  -0.1251  0.25017   9.0988E-08  1.3105E-07  1.5954E-07   55.229
    91  201  -3.7525   0.0000   0.1251  0.25017  -1.1649E-07 -1.5054E-07  1.9035E-07 -127.732
    92  201  -3.7525   0.0000   0.3753  0.25017  -9.8281E-08 -1.3689E-07  1.6852E-07 -125.676
    93  201  -3.7525   0.0000   0.6254  0.25017   9.0450E-08  1.8539E-07  2.0628E-07   63.992
    94  201  -3.7525   0.0000   0.8756  0.25017   5.7701E-08  1.9704E-07  2.0531E-07   73.678
    95  201  -3.7525   0.0000   1.1258  0.25017  -1.2988E-07 -1.2516E-07  1.8037E-07 -136.059
    96  201  -3.7525   0.0000   1.3759  0.25017  -8.3110E-08 -1.5877E-07  1.7921E-07 -117.630
    97  201  -3.7525   0.0000   1.6261  0.25017   1.0860E-07  1.3097E-07  1.7013E-07   50.334
    98  201  -3.7525   0.0000   1.8763  0.25017   4.0146E-08  1.2835E-07  1.3448E-07   72.631
    99  201  -3.7525   0.0000   2.1264  0.25017  -1.8561E-07 -1.9292E-07  2.6771E-07 -133.894
   100  201  -3.7525   0.0000   2.3766  0.25017  -1.3274E-07 -1.8897E-07  2.3093E-07 -125.085
   101  202  -1.2508   0.0000  -2.3766  0.25017   9.0174E-08  1.0877E-07  1.4129E-07   50.341
   102  202  -1.2508   0.0000  -2.1264  0.25017   8.1397E-08  1.4204E-07  1.6371E-07   60.185
   103  202  -1.2508   0.0000  -1.8763  0.25017  -7.3825E-08 -1.7650E-08  7.5906E-08 -166.554
   104  202  -1.2508   0.0000  -1.6261  0.25017  -6.8264E-08 -4.1297E-08  7.9784E-08 -148.828
   105  202  -1.2508   0.0000  -1.3759  0.25017   8.8361E-08  8.8177E-08  1.2483E-07   44.941
   106  202  -1.2508   0.0000  -1.1258  0.25017   1.2520E-07  7.0691E-08  1.4378E-07   29.451
   107  202  -1.2508   0.0000  -0.8756  0.25017   4.2408E-08 -8.5140E-08  9.5117E-08  -63.522
   108  202  -1.2508   0.0000  -0.6254  0.25017   6.6257E-08 -7.1792E-08  9.7694E-08  -47.296
   109  202  -1.2508   0.0000  -0.3753  0.25017   1.5638E-07  9.3693E-08  1.8230E-07   30.927
   110  202  -1.2508   0.0000  -0.1251  0.25017   8.0121E-08  9.0342E-08  1.2075E-07   48.431
   111  202  -1.2508   0.0000   0.1251  0.25017  -9.8239E-08 -7.0667E-08  1.2102E-07 -144.271
   112  202  -1.2508   0.0000   0.3753  0.25017  -1.1254E-07 -6.2374E-08  1.2867E-07 -151.003
   113  202  -1.2508   0.0000   0.6254  0.25017   3.6193E-09  1.1071E-07  1.1077E-07   88.128
   114  202  -1.2508   0.0000   0.8756  0.25017   8.5543E-09  1.1457E-07  1.1489E-07   85.730
   115  202  -1.2508   0.0000   1.1258  0.25017  -5.6946E-08 -6.5657E-08  8.6912E-08 -130.936
   116  202  -1.2508   0.0000   1.3759  0.25017   2.2600E-08 -1.1152E-07  1.1379E-07  -78.544
   117  202  -1.2508   0.0000   1.6261  0.25017   1.5217E-07 -5.4933E-09  1.5227E-07   -2.068
   118  202  -1.2508   0.0000   1.8763  0.25017   7.2046E-08 -4.0482E-08  8.2641E-08  -29.331
   119  202  -1.2508   0.0000   2.1264  0.25017  -1.1656E-07 -1.9146E-07  2.2415E-07 -121.333
   120  202  -1.2508   0.0000   2.3766  0.25017  -9.6055E-08 -1.2842E-07  1.6037E-07 -126.795
   121  203   1.2508   0.0000  -2.3766  0.25017  -5.3182E-07  2.1067E-08  5.3224E-07  177.732
   122  203   1.2508   0.0000  -2.1264  0.25017  -5.7970E-07  4.8519E-08  5.8173E-07  175.216
   123  203   1.2508   0.0000  -1.8763  0.25017   4.1209E-07 -1.0714E-08  4.1223E-07   -1.489
   124  203   1.2508   0.0000  -1.6261  0.25017   5.7464E-07 -1.4806E-08  5.7483E-07   -1.476
   125  203   1.2508   0.0000  -1.3759  0.25017  -2.7565E-07  1.0848E-07  2.9623E-07  158.518
   126  203   1.2508   0.0000  -1.1258  0.25017  -3.8831E-07  1.5555E-07  4.1830E-07  158.169
   127  203   1.2508   0.0000  -0.8756  0.25017   4.3853E-07  8.1390E-09  4.3860E-07    1.063
   128  203   1.2508   0.0000  -0.6254  0.25017   5.2818E-07 -1.2671E-07  5.4316E-07  -13.490
   129  203   1.2508   0.0000  -0.3753  0.25017  -3.0350E-07 -7.0753E-08  3.1164E-07 -166.877
   130  203   1.2508   0.0000  -0.1251  0.25017  -4.1966E-07  5.4322E-08  4.2316E-07  172.624
   131  203   1.2508   0.0000   0.1251  0.25017   3.4570E-07  1.0378E-07  3.6095E-07   16.710
   132  203   1.2508   0.0000   0.3753  0.25017   3.9714E-07  1.2623E-07  4.1671E-07   17.632
   133  203   1.2508   0.0000   0.6254  0.25017  -3.7698E-07  1.3959E-07  4.0200E-07  159.681
   134  203   1.2508   0.0000   0.8756  0.25017  -3.8113E-07  3.6425E-08  3.8287E-07  174.541
   135  203   1.2508   0.0000   1.1258  0.25017   4.3537E-07 -1.4060E-07  4.5751E-07  -17.897
   136  203   1.2508   0.0000   1.3759  0.25017   4.2401E-07 -1.7566E-07  4.5896E-07  -22.504
   137  203   1.2508   0.0000   1.6261  0.25017  -4.4134E-07 -5.3295E-08  4.4455E-07 -173.114
   138  203   1.2508   0.0000   1.8763  0.25017  -4.3648E-07 -2.4361E-09  4.3649E-07 -179.680
   139  203   1.2508   0.0000   2.1264  0.25017   4.8302E-07 -7.7305E-08  4.8916E-07   -9.093
   140  203   1.2508   0.0000   2.3766  0.25017   5.0230E-07 -6.8686E-08  5.0698E-07   -7.786
   141  204   3.7525   0.0000  -2.3766  0.25017   6.4446E-08 -1.9660E-07  2.0689E-07  -71.850
   142  204   3.7525   0.0000  -2.1264  0.25017  -1.4025E-08 -1.6633E-08  2.1757E-08 -130.139
   143  204   3.7525   0.0000  -1.8763  0.25017  -2.0701E-07  3.9686E-07  4.4761E-07  117.547
   144  204   3.7525   0.0000  -1.6261  0.25017  -1.2012E-07  1.5218E-07  1.9388E-07  128.286
   145  204   3.7525   0.0000  -1.3759  0.25017   2.2061E-07 -3.3940E-07  4.0479E-07  -56.976
   146  204   3.7525   0.0000  -1.1258  0.25017   3.5348E-07 -1.3144E-07  3.7713E-07  -20.397
   147  204   3.7525   0.0000  -0.8756  0.25017   1.1420E-07  3.7525E-07  3.9224E-07   73.074
   148  204   3.7525   0.0000  -0.6254  0.25017  -1.3243E-07  1.7263E-07  2.1758E-07  127.493
   149  204   3.7525   0.0000  -0.3753  0.25017  -1.0881E-07 -3.6400E-07  3.7992E-07 -106.643
   150  204   3.7525   0.0000  -0.1251  0.25017   2.0512E-08 -1.6030E-07  1.6161E-07  -82.708
   151  204   3.7525   0.0000   0.1251  0.25017   6.3710E-08  4.6161E-07  4.6599E-07   82.142
   152  204   3.7525   0.0000   0.3753  0.25017   8.9389E-08  3.6312E-07  3.7396E-07   76.171
   153  204   3.7525   0.0000   0.6254  0.25017   1.1795E-07 -2.4470E-07  2.7164E-07  -64.265
   154  204   3.7525   0.0000   0.8756  0.25017   4.3091E-09 -2.3675E-07  2.3679E-07  -88.957
   155  204   3.7525   0.0000   1.1258  0.25017  -1.7408E-07  2.5929E-07  3.1230E-07  123.876
   156  204   3.7525   0.0000   1.3759  0.25017  -1.0808E-07  1.6862E-07  2.0029E-07  122.658
   157  204   3.7525   0.0000   1.6261  0.25017   1.5734E-07 -4.0432E-07  4.3385E-07  -68.736
   158  204   3.7525   0.0000   1.8763  0.25017   1.7786E-07 -3.8059E-07  4.2010E-07  -64.953
   159  204   3.7525   0.0000   2.1264  0.25017  -1.0526E-07  2.0311E-07  2.2877E-07  117.395
   160  204   3.7525   0.0000   2.3766  0.25017  -1.6158E-07  2.6614E-07  3.1135E-07  121.263
   161  301  -3.7525   2.5017  -2.3766  0.25017   6.9931E-08  1.1621E-07  1.3562E-07   58.961
   162  301  -3.7525   2.5017  -2.1264  0.25017   4.7189E-08  1.1398E-07  1.2337E-07   67.511
   163  301  -3.7525   2.5017  -1.8763  0.25017  -1.0532E-07 -1.2117E-07  1.6054E-07 -130.999
   164  301  -3.7525   2.5017  -1.6261  0.25017  -9.4100E-08 -1.5917E-07  1.8491E-07 -120.591
   165  301  -3.7525   2.5017  -1.3759  0.25017   4.9948E-08  2.6972E-08  5.6765E-08   28.369
   166  301  -3.7525   2.5017  -1.1258  0.25017   4.3553E-08  2.8008E-08  5.1782E-08   32.745
   167  301  -3.7525   2.5017  -0.8756  0.25017  -8.0881E-08 -1.7652E-07  1.9417E-07 -114.617
   168  301  -3.7525   2.5017  -0.6254  0.25017  -5.3784E-08 -1.7442E-07  1.8253E-07 -107.137
   169  301  -3.7525   2.5017  -0.3753  0.25017   7.7074E-08  5.4628E-08  9.4470E-08   35.328
   170  301  -3.7525   2.5017  -0.1251  0.25017   4.2284E-08  8.9973E-08  9.9414E-08   64.828
   171  301  -3.7525   2.5017   0.1251  0.25017  -9.9173E-08 -9.9898E-08  1.4077E-07 -134.791
   172  301  -3.7525   2.5017   0.3753  0.25017  -7.2635E-08 -9.7668E-08  1.2172E-07 -126.638
   173  301  -3.7525   2.5017   0.6254  0.25017   6.0529E-08  1.2946E-07  1.4291E-07   64.941
   174  301  -3.7525   2.5017   0.8756  0.25017   2.8597E-08  1.5875E-07  1.6131E-07   79.789
   175  301  -3.7525   2.5017   1.1258  0.25017  -9.8297E-08 -5.3197E-08  1.1177E-07 -151.578
   176  301  -3.7525   2.5017   1.3759  0.25017  -5.0234E-08 -8.7454E-08  1.0085E-07 -119.873
   177  301  -3.7525   2.5017   1.6261  0.25017   8.5337E-08  1.0407E-07  1.3459E-07   50.649
   178  301  -3.7525   2.5017   1.8763  0.25017   2.5299E-08  1.0776E-07  1.1069E-07   76.788
   179  301  -3.7525   2.5017   2.1264  0.25017  -1.3495E-07 -1.1549E-07  1.7762E-07 -139.444
   180  301  -3.7525   2.5017   2.3766  0.25017  -9.1447E-08 -1.2717E-07  1.5664E-07 -125.719
   181  302  -1.2508   2.5017  -2.3766  0.25017   1.2581E-07 -1.0863E-07  1.6622E-07  -40.807
   182  302  -1.2508   2.5017  -2.1264  0.25017   1.2661E-07 -1.2036E-07  1.7469E-07  -43.551
   183  302  -1.2508   2.5017  -1.8763  0.25017  -1.0505E-07  6.5510E-08  1.2381E-07  148.053
   184  302  -1.2508   2.5017  -1.6261  0.25017  -1.1906E-07  7.3512E-08  1.3992E-07  148.307
   185  302  -1.2508   2.5017  -1.3759  0.25017   8.3410E-08 -1.0522E-07  1.3427E-07  -51.595
   186  302  -1.2508   2.5017  -1.1258  0.25017   6.9689E-08 -1.1777E-07  1.3684E-07  -59.386
   187  302  -1.2508   2.5017  -0.8756  0.25017  -1.5341E-07  4.0082E-08  1.5856E-07  165.358
   188  302  -1.2508   2.5017  -0.6254  0.25017  -1.4955E-07  3.2805E-08  1.5311E-07  167.628
   189  302  -1.2508   2.5017  -0.3753  0.25017   7.9698E-08 -1.2490E-07  1.4816E-07  -57.457
   190  302  -1.2508   2.5017  -0.1251  0.25017   9.7219E-08 -9.6706E-08  1.3713E-07  -44.849
   191  302  -1.2508   2.5017   0.1251  0.25017  -1.0342E-07  9.0416E-08  1.3737E-07  138.838
   192  302  -1.2508   2.5017   0.3753  0.25017  -9.2544E-08  9.1528E-08  1.3016E-07  135.316
   193  302  -1.2508   2.5017   0.6254  0.25017   1.3100E-07 -6.9625E-08  1.4835E-07  -27.991
   194  302  -1.2508   2.5017   0.8756  0.25017   1.2967E-07 -5.5796E-08  1.4117E-07  -23.282
   195  302  -1.2508   2.5017   1.1258  0.25017  -1.0473E-07  1.0004E-07  1.4483E-07  136.313
   196  302  -1.2508   2.5017   1.3759  0.25017  -1.3194E-07  6.6847E-08  1.4791E-07  153.131
   197  302  -1.2508   2.5017   1.6261  0.25017   6.6999E-08 -9.8234E-08  1.1891E-07  -55.705
   198  302  -1.2508   2.5017   1.8763  0.25017   6.1712E-08 -4.6590E-08  7.7324E-08  -37.051
   199  302  -1.2508   2.5017   2.1264  0.25017  -1.5607E-07  1.5276E-07  2.1838E-07  135.614
   200  302  -1.2508   2.5017   2.3766  0.25017  -1.3745E-07  1.1731E-07  1.8070E-07  139.521
   201  303   1.2508   2.5017  -2.3766  0.25017   1.0569E-07  1.2134E-07  1.6092E-07   48.944
   202  303   1.2508   2.5017  -2.1264  0.25017   9.7844E-08  1.5357E-07  1.8209E-07   57.497
   203  303   1.2508   2.5017  -1.8763  0.25017  -8.6154E-08 -2.8829E-08  9.0849E-08 -161.499
   204  303   1.2508   2.5017  -1.6261  0.25017  -8.2918E-08 -5.1880E-08  9.7811E-08 -147.967
   205  303   1.2508   2.5017  -1.3759  0.25017   9.9855E-08  1.0025E-07  1.4150E-07   45.113
   206  303   1.2508   2.5017  -1.1258  0.25017   1.3681E-07  8.4046E-08  1.6056E-07   31.564
   207  303   1.2508   2.5017  -0.8756  0.25017   2.7045E-08 -9.3047E-08  9.6897E-08  -73.793
   208  303   1.2508   2.5017  -0.6254  0.25017   5.1787E-08 -8.1732E-08  9.6757E-08  -57.641
   209  303   1.2508   2.5017  -0.3753  0.25017   1.7099E-07  1.0346E-07  1.9986E-07   31.176
   210  303   1.2508   2.5017  -0.1251  0.25017   9.5406E-08  1.0153E-07  1.3932E-07   46.780
   211  303   1.2508   2.5017   0.1251  0.25017  -1.1196E-07 -7.8905E-08  1.3697E-07 -144.824
   212  303   1.2508   2.5017   0.3753  0.25017  -1.2755E-07 -7.1707E-08  1.4632E-07 -150.655
   213  303   1.2508   2.5017   0.6254  0.25017   1.7925E-08  1.2061E-07  1.2193E-07   81.546
   214  303   1.2508   2.5017   0.8756  0.25017   2.5960E-08  1.2455E-07  1.2723E-07   78.227
   215  303   1.2508   2.5017   1.1258  0.25017  -6.6642E-08 -7.6340E-08  1.0134E-07 -131.120
   216  303   1.2508   2.5017   1.3759  0.25017   1.0797E-08 -1.2247E-07  1.2294E-07  -84.962
   217  303   1.2508   2.5017   1.6261  0.25017   1.6655E-07  6.3051E-09  1.6667E-07    2.168
   218  303   1.2508   2.5017   1.8763  0.25017   8.6172E-08 -2.5959E-08  8.9997E-08  -16.764
   219  303   1.2508   2.5017   2.1264  0.25017  -1.3130E-07 -1.9945E-07  2.3879E-07 -123.358
   220  303   1.2508   2.5017   2.3766  0.25017  -1.1158E-07 -1.3993E-07  1.7897E-07 -128.569
   221  304   3.7525   2.5017  -2.3766  0.25017  -1.1547E-07  5.8645E-08  1.2951E-07  153.075
   222  304   3.7525   2.5017  -2.1264  0.25017  -1.0436E-07  2.2027E-08  1.0665E-07  168.081
   223  304   3.7525   2.5017  -1.8763  0.25017   1.0099E-07 -1.3756E-07  1.7065E-07  -53.717
   224  304   3.7525   2.5017  -1.6261  0.25017   1.1141E-07 -1.3376E-07  1.7408E-07  -50.209
   225  304   3.7525   2.5017  -1.3759  0.25017  -7.1773E-08  2.4218E-08  7.5749E-08  161.355
   226  304   3.7525   2.5017  -1.1258  0.25017  -1.0397E-07  4.4193E-08  1.1298E-07  156.973
   227  304   3.7525   2.5017  -0.8756  0.25017   2.4514E-08 -9.1376E-08  9.4607E-08  -74.982
   228  304   3.7525   2.5017  -0.6254  0.25017   8.1633E-09 -1.0730E-07  1.0761E-07  -85.649
   229  304   3.7525   2.5017  -0.3753  0.25017  -1.3314E-07  2.0687E-08  1.3474E-07  171.168
   230  304   3.7525   2.5017  -0.1251  0.25017  -8.6349E-08  3.7234E-08  9.4034E-08  156.674
   231  304   3.7525   2.5017   0.1251  0.25017   1.1692E-07 -7.2919E-08  1.3779E-07  -31.951
   232  304   3.7525   2.5017   0.3753  0.25017   1.3667E-07 -6.7932E-08  1.5262E-07  -26.430
   233  304   3.7525   2.5017   0.6254  0.25017  -2.8145E-08  4.7056E-08  5.4830E-08  120.884
   234  304   3.7525   2.5017   0.8756  0.25017  -5.9603E-08  2.9589E-08  6.6543E-08  153.598
   235  304   3.7525   2.5017   1.1258  0.25017   4.4046E-08 -9.0112E-08  1.0030E-07  -63.951
   236  304   3.7525   2.5017   1.3759  0.25017  -8.9133E-09 -4.2876E-08  4.3792E-08 -101.744
   237  304   3.7525   2.5017   1.6261  0.25017  -1.7493E-07  1.3981E-07  2.2393E-07  141.367
   238  304   3.7525   2.5017   1.8763  0.25017  -1.2148E-07  1.5458E-07  1.9660E-07  128.162
   239  304   3.7525   2.5017   2.1264  0.25017   1.0572E-07 -7.8703E-09  1.0601E-07   -4.257
   240  304   3.7525   2.5017   2.3766  0.25017   1.1338E-07 -5.3413E-08  1.2534E-07  -25.224



                                        - - - POWER BUDGET - - -

                                           INPUT POWER   = 2.8557E-08 WATTS
                                           RADIATED POWER= 2.8557E-08 WATTS
                                           STRUCTURE LOSS= 0.0000E+00 WATTS
                                           NETWORK LOSS  = 0.0000E+00 WATTS
                                           EFFICIENCY    = 100.00 PERCENT



                                                - - - RADIATION PATTERNS - - -

  - - ANGLES - -       - DIRECTIVE GAINS -       - - - POLARIZATION - - -    - - - E(THETA) - - -    - - - E(PHI) - - -
  THETA     PHI        VERT.   HOR.    TOTAL      AXIAL     TILT   SENSE     MAGNITUDE    PHASE      MAGNITUDE    PHASE 
 DEGREES  DEGREES       DB      DB      DB        RATIO     DEG.              VOLTS/M    DEGREES      VOLTS/M    DEGREES
    0.00     0.00    -999.99 -999.99 -999.99    0.00000     0.00            0.00000E+00     0.00    0.00000E+00     0.00
    5.00     0.00      -5.19 -999.99   -5.19    0.00000     0.00  LINEAR    7.19714E-04  -113.63    0.00000E+00     0.00
   10.00     0.00       0.76 -999.99    0.76    0.00000     0.00  LINEAR    1.42781E-03    -1.02    0.00000E+00     0.00
   15.00     0.00       4.12 -999.99    4.12    0.00000     0.00  LINEAR    2.10235E-03   115.73    0.00000E+00     0.00
   20.00     0.00       6.18 -999.99    6.18    0.00000     0.00  LINEAR    2.66600E-03  -129.11    0.00000E+00     0.00
   25.00     0.00       7.13 -999.99    7.13    0.00000     0.00  LINEAR    2.97282E-03   -21.68    0.00000E+00     0.00
   30.00     0.00       6.06 -999.99    6.06    0.00000     0.00  LINEAR    2.62744E-03    83.21    0.00000E+00     0.00
   35.00     0.00       0.95 -999.99    0.95    0.00000     0.00  LINEAR    1.45997E-03   179.83    0.00000E+00     0.00
   40.00     0.00     -37.20 -999.99  -37.20    0.00000     0.00  LINEAR    1.80658E-05   135.65    0.00000E+00     0.00
   45.00     0.00      -3.44 -999.99   -3.44    0.00000     0.00  LINEAR    8.80572E-04  -177.55    0.00000E+00     0.00
   50.00     0.00      -6.92 -999.99   -6.92    0.00000     0.00  LINEAR    5.89987E-04   -99.32    0.00000E+00     0.00
   55.00     0.00      -5.35 -999.99   -5.35    0.00000     0.00  LINEAR    7.06449E-04   162.31    0.00000E+00     0.00
   60.00     0.00       2.06 -999.99    2.06    0.00000     0.00  LINEAR    1.65859E-03  -132.96    0.00000E+00     0.00
   65.00     0.00      -1.46 -999.99   -1.46    0.00000     0.00  LINEAR    1.10624E-03   -73.79    0.00000E+00     0.00
   70.00     0.00      -9.50 -999.99   -9.50    0.00000     0.00  LINEAR    4.38078E-04   103.27    0.00000E+00     0.00
   75.00     0.00      -6.10 -999.99   -6.10    0.00000     0.00  LINEAR    6.48606E-04   160.89    0.00000E+00     0.00
   80.00     0.00      -8.39 -999.99   -8.39    0.00000     0.00  LINEAR    4.98122E-04    27.33    0.00000E+00     0.00
   85.00     0.00      -0.16 -999.99   -0.16    0.00000     0.00  LINEAR    1.28390E-03    43.32    0.00000E+00     0.00
   90.00     0.00      -7.52 -999.99   -7.52    0.00000     0.00  LINEAR    5.50296E-04    73.67    0.00000E+00     0.00
    0.00     5.00    -999.99 -999.99 -999.99    0.00000     0.00            0.00000E+00     0.00    0.00000E+00     0.00
    5.00     5.00      -5.24 -999.99   -5.24    0.00000     0.00  LINEAR    7.15908E-04  -120.61    0.00000E+00     0.00
   10.00     5.00       0.84 -999.99    0.84    0.00000     0.00  LINEAR    1.44219E-03   -16.19    0.00000E+00     0.00
   15.00     5.00       4.03 -999.99    4.03    0.00000     0.00  LINEAR    2.08026E-03    93.67    0.00000E+00     0.00
   20.00     5.00       5.90 -999.99    5.90    0.00000     0.00  LINEAR    2.58097E-03  -157.58    0.00000E+00     0.00
   25.00     5.00       7.15 -999.99    7.15    0.00000     0.00  LINEAR    2.98063E-03   -57.28    0.00000E+00     0.00
   30.00     5.00       5.82 -999.99    5.82    0.00000     0.00  LINEAR    2.55874E-03    42.14    0.00000E+00     0.00
   35.00     5.00       0.89 -999.99    0.89    0.00000     0.00  LINEAR    1.44963E-03   131.97    0.00000E+00     0.00
   40.00     5.00     -33.64 -999.99  -33.64    0.00000     0.00  LINEAR    2.72240E-05   -27.72    0.00000E+00     0.00
   45.00     5.00      -3.71 -999.99   -3.71    0.00000     0.00  LINEAR    8.54089E-04   119.03    0.00000E+00     0.00
   50.00     5.00      -6.98 -999.99   -6.98    0.00000     0.00  LINEAR    5.85694E-04  -164.27    0.00000E+00     0.00
   55.00     5.00      -5.43 -999.99   -5.43    0.00000     0.00  LINEAR    7.00400E-04    88.73    0.00000E+00     0.00
   60.00     5.00       0.81 -999.99    0.81    0.00000     0.00  LINEAR    1.43705E-03   150.10    0.00000E+00     0.00
   65.00     5.00      -2.75 -999.99   -2.75    0.00000     0.00  LINEAR    9.52973E-04  -149.50    0.00000E+00     0.00
   70.00     5.00      -8.28 -999.99   -8.28    0.00000     0.00  LINEAR    5.04540E-04    46.27    0.00000E+00     0.00
   75.00     5.00      -4.77 -999.99   -4.77    0.00000     0.00  LINEAR    7.55251E-04    84.93    0.00000E+00     0.00
   80.00     5.00      -7.04 -999.99   -7.04    0.00000     0.00  LINEAR    5.81590E-04   -60.97    0.00000E+00     0.00
   85.00     5.00       0.58 -999.99    0.58    0.00000     0.00  LINEAR    1.39831E-03   -45.54    0.00000E+00     0.00
   90.00     5.00      -7.80 -999.99   -7.80    0.00000     0.00  LINEAR    5.32837E-04   -12.14    0.00000E+00     0.00
    0.00    10.00    -999.99 -999.99 -999.99    0.00000     0.00            0.00000E+00     0.00    0.00000E+00     0.00
    5.00    10.00      -5.30 -999.99   -5.30    0.00000     0.00  LINEAR    7.10804E-04  -128.50    0.00000E+00     0.00
   10.00    10.00       0.98 -999.99    0.98    0.00000     0.00  LINEAR    1.46518E-03   -32.76    0.00000E+00     0.00
   15.00    10.00       3.96 -999.99    3.96    0.00000     0.00  LINEAR    2.06359E-03    68.57    0.00000E+00     0.00
   20.00    10.00       5.58 -999.99    5.58    0.00000     0.00  LINEAR    2.48736E-03   168.93    0.00000E+00     0.00
   25.00    10.00       7.15 -999.99    7.15    0.00000     0.00  LINEAR    2.97918E-03   -96.22    0.00000E+00     0.00
   30.00    10.00       5.59 -999.99    5.59    0.00000     0.00  LINEAR    2.49119E-03    -5.71    0.00000E+00     0.00
   35.00    10.00       0.76 -999.99    0.76    0.00000     0.00  LINEAR    1.42801E-03    78.29    0.00000E+00     0.00
   40.00    10.00     -21.36 -999.99  -21.36    0.00000     0.00  LINEAR    1.11875E-04   -58.94    0.00000E+00     0.00
   45.00    10.00      -2.79 -999.99   -2.79    0.00000     0.00  LINEAR    9.49031E-04    47.16    0.00000E+00     0.00
   50.00    10.00      -6.69 -999.99   -6.69    0.00000     0.00  LINEAR    6.06031E-04   121.08    0.00000E+00     0.00
   55.00    10.00      -5.38 -999.99   -5.38    0.00000     0.00  LINEAR    7.04575E-04    13.00    0.00000E+00     0.00
   60.00    10.00       1.53 -999.99    1.53    0.00000     0.00  LINEAR    1.56009E-03    63.50    0.00000E+00     0.00
   65.00    10.00      -2.68 -999.99   -2.68    0.00000     0.00  LINEAR    9.61465E-04   119.28    0.00000E+00     0.00
   70.00    10.00     -11.14 -999.99  -11.14    0.00000     0.00  LINEAR    3.62864E-04   -41.89    0.00000E+00     0.00
   75.00    10.00      -5.63 -999.99   -5.63    0.00000     0.00  LINEAR    6.84594E-04    -0.88    0.00000E+00     0.00
   80.00    10.00      -7.77 -999.99   -7.77    0.00000     0.00  LINEAR    5.34888E-04  -142.11    0.00000E+00     0.00
   85.00    10.00       0.36 -999.99    0.36    0.00000     0.00  LINEAR    1.36368E-03  -131.30    0.00000E+00     0.00
   90.00    10.00      -8.24 -999.99   -8.24    0.00000     0.00  LINEAR    5.06506E-04  -103.41    0.00000E+00     0.00
    0.00    15.00    -999.99 -999.99 -999.99    0.00000     0.00            0.00000E+00     0.00    0.00000E+00     0.00
    5.00    15.00      -5.38 -999.99   -5.38    0.00000     0.00  LINEAR    7.04583E-04  -137.28    0.00000E+00     0.00
   10.00    15.00       1.15 -999.99    1.15    0.00000     0.00  LINEAR    1.49362E-03   -50.40    0.00000E+00     0.00
   15.00    15.00       3.98 -999.99    3.98    0.00000     0.00  LINEAR    2.06907E-03    40.72    0.00000E+00     0.00
   20.00    15.00       5.49 -999.99    5.49    0.00000     0.00  LINEAR    2.46159E-03   130.60    0.00000E+00     0.00
   25.00    15.00       6.98 -999.99    6.98    0.00000     0.00  LINEAR    2.92147E-03  -139.02    0.00000E+00     0.00
   30.00    15.00       5.65 -999.99    5.65    0.00000     0.00  LINEAR    2.50812E-03   -58.55    0.00000E+00     0.00
   35.00    15.00       0.74 -999.99    0.74    0.00000     0.00  LINEAR    1.42515E-03    18.33    0.00000E+00     0.00
   40.00    15.00     -17.18 -999.99  -17.18    0.00000     0.00  LINEAR    1.81089E-04   -78.27    0.00000E+00     0.00
   45.00    15.00      -1.41 -999.99   -1.41    0.00000     0.00  LINEAR    1.11217E-03   -20.25    0.00000E+00     0.00
   50.00    15.00      -5.83 -999.99   -5.83    0.00000     0.00  LINEAR    6.68800E-04    44.38    0.00000E+00     0.00
   55.00    15.00      -5.21 -999.99   -5.21    0.00000     0.00  LINEAR    7.18252E-04   -71.70    0.00000E+00     0.00
   60.00    15.00       2.18 -999.99    2.18    0.00000     0.00  LINEAR    1.68152E-03   -24.02    0.00000E+00     0.00
   65.00    15.00      -2.10 -999.99   -2.10    0.00000     0.00  LINEAR    1.02712E-03    25.54    0.00000E+00     0.00
   70.00    15.00     -11.57 -999.99  -11.57    0.00000     0.00  LINEAR    3.45384E-04  -143.30    0.00000E+00     0.00
   75.00    15.00      -6.11 -999.99   -6.11    0.00000     0.00  LINEAR    6.47394E-04   -97.13    0.00000E+00     0.00
   80.00    15.00      -7.61 -999.99   -7.61    0.00000     0.00  LINEAR    5.45140E-04   103.04    0.00000E+00     0.00
   85.00    15.00       0.37 -999.99    0.37    0.00000     0.00  LINEAR    1.36600E-03   119.12    0.00000E+00     0.00
   90.00    15.00      -8.05 -999.99   -8.05    0.00000     0.00  LINEAR    5.18020E-04   140.36    0.00000E+00     0.00
    0.00    20.00    -999.99 -999.99 -999.99    0.00000     0.00            0.00000E+00     0.00    0.00000E+00     0.00
    5.00    20.00      -5.46 -999.99   -5.46    0.00000     0.00  LINEAR    6.97684E-04  -146.93    0.00000E+00     0.00
   10.00    20.00       1.31 -999.99    1.31    0.00000     0.00  LINEAR    1.52080E-03   -68.88    0.00000E+00     0.00
   15.00    20.00       4.14 -999.99    4.14    0.00000     0.00  LINEAR    2.10835E-03    10.84    0.00000E+00     0.00
   20.00    20.00       5.81 -999.99    5.81    0.00000     0.00  LINEAR    2.55523E-03    89.62    0.00000E+00     0.00
   25.00    20.00       6.77 -999.99    6.77    0.00000     0.00  LINEAR    2.85159E-03   173.16    0.00000E+00     0.00
   30.00    20.00       5.81 -999.99    5.81    0.00000     0.00  LINEAR    2.55451E-03  -114.10    0.00000E+00     0.00
   35.00    20.00       0.98 -999.99    0.98    0.00000     0.00  LINEAR    1.46475E-03   -45.52    0.00000E+00     0.00
   40.00    20.00     -17.07 -999.99  -17.07    0.00000     0.00  LINEAR    1.83255E-04  -104.52    0.00000E+00     0.00
   45.00    20.00      -1.59 -999.99   -1.59    0.00000     0.00  LINEAR    1.08966E-03   -88.19    0.00000E+00     0.00
   50.00    20.00      -5.73 -999.99   -5.73    0.00000     0.00  LINEAR    6.76739E-04   -33.88    0.00000E+00     0.00
   55.00    20.00      -5.47 -999.99   -5.47    0.00000     0.00  LINEAR    6.97097E-04  -157.76    0.00000E+00     0.00
   60.00    20.00       2.55 -999.99    2.55    0.00000     0.00  LINEAR    1.75455E-03  -113.53    0.00000E+00     0.00
   65.00    20.00      -1.34 -999.99   -1.34    0.00000     0.00  LINEAR    1.12157E-03   -71.39    0.00000E+00     0.00
   70.00    20.00     -10.56 -999.99  -10.56    0.00000     0.00  LINEAR    3.88002E-04   100.02    0.00000E+00     0.00
   75.00    20.00      -6.31 -999.99   -6.31    0.00000     0.00  LINEAR    6.33005E-04   146.59    0.00000E+00     0.00
   80.00    20.00      -7.45 -999.99   -7.45    0.00000     0.00  LINEAR    5.55180E-04     3.83    0.00000E+00     0.00
   85.00    20.00       0.47 -999.99    0.47    0.00000     0.00  LINEAR    1.38097E-03    14.70    0.00000E+00     0.00
   90.00    20.00      -6.77 -999.99   -6.77    0.00000     0.00  LINEAR    6.00212E-04    41.06    0.00000E+00     0.00
    0.00    25.00    -999.99 -999.99 -999.99    0.00000     0.00            0.00000E+00     0.00    0.00000E+00     0.00
    5.00    25.00      -5.55 -999.99   -5.55    0.00000     0.00  LINEAR    6.90803E-04  -157.41    0.00000E+00     0.00
   10.00    25.00       1.40 -999.99    1.40    0.00000     0.00  LINEAR    1.53822E-03   -88.12    0.00000E+00     0.00
   15.00    25.00       4.42 -999.99    4.42    0.00000     0.00  LINEAR    2.17694E-03   -20.20    0.00000E+00     0.00
   20.00    25.00       6.38 -999.99    6.38    0.00000     0.00  LINEAR    2.72755E-03    48.40    0.00000E+00     0.00
   25.00    25.00       6.83 -999.99    6.83    0.00000     0.00  LINEAR    2.87241E-03   121.37    0.00000E+00     0.00
   30.00    25.00       5.91 -999.99    5.91    0.00000     0.00  LINEAR    2.58446E-03  -173.02    0.00000E+00     0.00
   35.00    25.00       1.16 -999.99    1.16    0.00000     0.00  LINEAR    1.49464E-03  -112.06    0.00000E+00     0.00
   40.00    25.00     -18.99 -999.99  -18.99    0.00000     0.00  LINEAR    1.47054E-04  -146.93    0.00000E+00     0.00
   45.00    25.00      -2.82 -999.99   -2.82    0.00000     0.00  LINEAR    9.45754E-04  -170.40    0.00000E+00     0.00
   50.00    25.00      -6.65 -999.99   -6.65    0.00000     0.00  LINEAR    6.08800E-04  -121.51    0.00000E+00     0.00
   55.00    25.00      -5.93 -999.99   -5.93    0.00000     0.00  LINEAR    6.61256E-04   103.27    0.00000E+00     0.00
   60.00    25.00       1.56 -999.99    1.56    0.00000     0.00  LINEAR    1.56598E-03   147.26    0.00000E+00     0.00
   65.00    25.00      -2.14 -999.99   -2.14    0.00000     0.00  LINEAR    1.02265E-03  -167.47    0.00000E+00     0.00
   70.00    25.00      -9.45 -999.99   -9.45    0.00000     0.00  LINEAR    4.41043E-04   -14.52    0.00000E+00     0.00
   75.00    25.00      -6.57 -999.99   -6.57    0.00000     0.00  LINEAR    6.14370E-04    40.03    0.00000E+00     0.00
   80.00    25.00      -6.64 -999.99   -6.64    0.00000     0.00  LINEAR    6.09122E-04  -122.91    0.00000E+00     0.00
   85.00    25.00       0.93 -999.99    0.93    0.00000     0.00  LINEAR    1.45579E-03  -107.20    0.00000E+00     0.00
   90.00    25.00      -7.00 -999.99   -7.00    0.00000     0.00  LINEAR    5.84203E-04   -85.15    0.00000E+00     0.00
    0.00    30.00    -999.99 -999.99 -999.99    0.00000     0.00            0.00000E+00     0.00    0.00000E+00     0.00
    5.00    30.00      -5.62 -999.99   -5.62    0.00000     0.00  LINEAR    6.84834E-04  -168.63    0.00000E+00     0.00
   10.00    30.00       1.41 -999.99    1.41    0.00000     0.00  LINEAR    1.53885E-03  -108.21    0.00000E+00     0.00
   15.00    30.00       4.72 -999.99    4.72    0.00000     0.00  LINEAR    2.25184E-03   -51.78    0.00000E+00     0.00
   20.00    30.00       6.87 -999.99    6.87    0.00000     0.00  LINEAR    2.88531E-03     7.47    0.00000E+00     0.00
   25.00    30.00       7.10 -999.99    7.10    0.00000     0.00  LINEAR    2.96346E-03    68.29    0.00000E+00     0.00
   30.00    30.00       6.09 -999.99    6.09    0.00000     0.00  LINEAR    2.63688E-03   125.52    0.00000E+00     0.00
   35.00    30.00       1.25 -999.99    1.25    0.00000     0.00  LINEAR    1.51163E-03   177.89    0.00000E+00     0.00
   40.00    30.00     -20.96 -999.99  -20.96    0.00000     0.00  LINEAR    1.17216E-04   170.60    0.00000E+00     0.00
   45.00    30.00      -3.05 -999.99   -3.05    0.00000     0.00  LINEAR    9.21185E-04    98.65    0.00000E+00     0.00
   50.00    30.00      -7.04 -999.99   -7.04    0.00000     0.00  LINEAR    5.81544E-04   137.50    0.00000E+00     0.00
   55.00    30.00      -6.36 -999.99   -6.36    0.00000     0.00  LINEAR    6.29123E-04     2.85    0.00000E+00     0.00
   60.00    30.00       1.01 -999.99    1.01    0.00000     0.00  LINEAR    1.47044E-03    39.15    0.00000E+00     0.00
   65.00    30.00      -3.66 -999.99   -3.66    0.00000     0.00  LINEAR    8.58561E-04    70.10    0.00000E+00     0.00
   70.00    30.00      -7.07 -999.99   -7.07    0.00000     0.00  LINEAR    5.79767E-04  -106.29    0.00000E+00     0.00
   75.00    30.00      -5.52 -999.99   -5.52    0.00000     0.00  LINEAR    6.93450E-04   -85.29    0.00000E+00     0.00
   80.00    30.00      -6.26 -999.99   -6.26    0.00000     0.00  LINEAR    6.36818E-04   122.85    0.00000E+00     0.00
   85.00    30.00       0.74 -999.99    0.74    0.00000     0.00  LINEAR    1.42516E-03   132.29    0.00000E+00     0.00
   90.00    30.00      -6.95 -999.99   -6.95    0.00000     0.00  LINEAR    5.87998E-04   160.43    0.00000E+00     0.00
    0.00    35.00    -999.99 -999.99 -999.99    0.00000     0.00            0.00000E+00     0.00    0.00000E+00     0.00
    5.00    35.00      -5.68 -999.99   -5.68    0.00000     0.00  LINEAR    6.80726E-04   179.50    0.00000E+00     0.00
   10.00    35.00       1.30 -999.99    1.30    0.00000     0.00  LINEAR    1.52037E-03  -129.35    0.00000E+00     0.00
   15.00    35.00       4.92 -999.99    4.92    0.00000     0.00  LINEAR    2.30440E-03   -83.90    0.00000E+00     0.00
   20.00    35.00       7.07 -999.99    7.07    0.00000     0.00  LINEAR    2.95462E-03   -33.99    0.00000E+00     0.00
   25.00    35.00       7.30 -999.99    7.30    0.00000     0.00  LINEAR    3.03071E-03    14.33    0.00000E+00     0.00
   30.00    35.00       6.06 -999.99    6.06    0.00000     0.00  LINEAR    2.62808E-03    62.50    0.00000E+00     0.00
   35.00    35.00       1.24 -999.99    1.24    0.00000     0.00  LINEAR    1.50967E-03   105.57    0.00000E+00     0.00
   40.00    35.00     -29.81 -999.99  -29.81    0.00000     0.00  LINEAR    4.23132E-05   146.89    0.00000E+00     0.00
   45.00    35.00      -3.04 -999.99   -3.04    0.00000     0.00  LINEAR    9.22576E-04     2.42    0.00000E+00     0.00
   50.00    35.00      -6.42 -999.99   -6.42    0.00000     0.00  LINEAR    6.24945E-04    34.99    0.00000E+00     0.00
   55.00    35.00      -6.88 -999.99   -6.88    0.00000     0.00  LINEAR    5.92841E-04  -111.68    0.00000E+00     0.00
   60.00    35.00       0.22 -999.99    0.22    0.00000     0.00  LINEAR    1.34174E-03   -82.62    0.00000E+00     0.00
   65.00    35.00      -3.16 -999.99   -3.16    0.00000     0.00  LINEAR    9.08986E-04   -47.98    0.00000E+00     0.00
   70.00    35.00     -13.60 -999.99  -13.60    0.00000     0.00  LINEAR    2.73468E-04   117.02    0.00000E+00     0.00
   75.00    35.00      -7.21 -999.99   -7.21    0.00000     0.00  LINEAR    5.70843E-04   150.70    0.00000E+00     0.00
   80.00    35.00      -6.80 -999.99   -6.80    0.00000     0.00  LINEAR    5.97914E-04     5.99    0.00000E+00     0.00
   85.00    35.00       0.67 -999.99    0.67    0.00000     0.00  LINEAR    1.41388E-03     8.18    0.00000E+00     0.00
   90.00    35.00      -6.84 -999.99   -6.84    0.00000     0.00  LINEAR    5.95060E-04    32.76    0.00000E+00     0.00
    0.00    40.00    -999.99 -999.99 -999.99    0.00000     0.00            0.00000E+00     0.00    0.00000E+00     0.00
    5.00    40.00      -5.69 -999.99   -5.69    0.00000     0.00  LINEAR    6.79266E-04   167.16    0.00000E+00     0.00
   10.00    40.00       1.11 -999.99    1.11    0.00000     0.00  LINEAR    1.48704E-03  -151.77    0.00000E+00     0.00
   15.00    40.00       4.98 -999.99    4.98    0.00000     0.00  LINEAR    2.32080E-03  -116.92    0.00000E+00     0.00
   20.00    40.00       6.95 -999.99    6.95    0.00000     0.00  LINEAR    2.91118E-03   -77.26    0.00000E+00     0.00
   25.00    40.00       7.34 -999.99    7.34    0.00000     0.00  LINEAR    3.04783E-03   -40.98    0.00000E+00     0.00
   30.00    40.00       5.84 -999.99    5.84    0.00000     0.00  LINEAR    2.56291E-03    -4.20    0.00000E+00     0.00
   35.00    40.00       1.00 -999.99    1.00    0.00000     0.00  LINEAR    1.46740E-03    29.85    0.00000E+00     0.00
   40.00    40.00     -31.58 -999.99  -31.58    0.00000     0.00  LINEAR    3.45018E-05   -39.03    0.00000E+00     0.00
   45.00    40.00      -1.95 -999.99   -1.95    0.00000     0.00  LINEAR    1.04537E-03   -89.08    0.00000E+00     0.00
   50.00    40.00      -5.51 -999.99   -5.51    0.00000     0.00  LINEAR    6.94149E-04   -66.55    0.00000E+00     0.00
   55.00    40.00      -5.18 -999.99   -5.18    0.00000     0.00  LINEAR    7.21011E-04   135.43    0.00000E+00     0.00
   60.00    40.00       2.17 -999.99    2.17    0.00000     0.00  LINEAR    1.67910E-03   156.76    0.00000E+00     0.00
   65.00    40.00      -3.02 -999.99   -3.02    0.00000     0.00  LINEAR    9.24383E-04  -179.44    0.00000E+00     0.00
   70.00    40.00      -7.73 -999.99   -7.73    0.00000     0.00  LINEAR    5.37150E-04    -8.80    0.00000E+00     0.00
   75.00    40.00      -5.65 -999.99   -5.65    0.00000     0.00  LINEAR    6.83017E-04    16.72    0.00000E+00     0.00
   80.00    40.00      -7.57 -999.99   -7.57    0.00000     0.00  LINEAR    5.47600E-04  -142.99    0.00000E+00     0.00
   85.00    40.00       0.27 -999.99    0.27    0.00000     0.00  LINEAR    1.35034E-03  -133.68    0.00000E+00     0.00
   90.00    40.00      -7.61 -999.99   -7.61    0.00000     0.00  LINEAR    5.44640E-04  -108.39    0.00000E+00     0.00
    0.00    45.00    -999.99 -999.99 -999.99    0.00000     0.00            0.00000E+00     0.00    0.00000E+00     0.00
    5.00    45.00      -5.67 -999.99   -5.67    0.00000     0.00  LINEAR    6.80858E-04   154.52    0.00000E+00     0.00
   10.00    45.00       0.88 -999.99    0.88    0.00000     0.00  LINEAR    1.44879E-03  -175.54    0.00000E+00     0.00
   15.00    45.00       4.94 -999.99    4.94    0.00000     0.00  LINEAR    2.31030E-03  -151.10    0.00000E+00     0.00
   20.00    45.00       6.64 -999.99    6.64    0.00000     0.00  LINEAR    2.81198E-03  -123.63    0.00000E+00     0.00
   25.00    45.00       7.19 -999.99    7.19    0.00000     0.00  LINEAR    2.99268E-03   -97.99    0.00000E+00     0.00
   30.00    45.00       5.76 -999.99    5.76    0.00000     0.00  LINEAR    2.53852E-03   -73.03    0.00000E+00     0.00
   35.00    45.00       0.78 -999.99    0.78    0.00000     0.00  LINEAR    1.43210E-03   -48.57    0.00000E+00     0.00
   40.00    45.00     -31.94 -999.99  -31.94    0.00000     0.00  LINEAR    3.30844E-05   -10.40    0.00000E+00     0.00
   45.00    45.00      -3.07 -999.99   -3.07    0.00000     0.00  LINEAR    9.18848E-04   178.46    0.00000E+00     0.00
   50.00    45.00      -5.21 -999.99   -5.21    0.00000     0.00  LINEAR    7.18495E-04  -164.47    0.00000E+00     0.00
   55.00    45.00      -5.57 -999.99   -5.57    0.00000     0.00  LINEAR    6.89429E-04    33.50    0.00000E+00     0.00
   60.00    45.00       2.40 -999.99    2.40    0.00000     0.00  LINEAR    1.72572E-03    48.28    0.00000E+00     0.00
   65.00    45.00      -1.33 -999.99   -1.33    0.00000     0.00  LINEAR    1.12300E-03    63.22    0.00000E+00     0.00
   70.00    45.00     -10.78 -999.99  -10.78    0.00000     0.00  LINEAR    3.78204E-04  -121.47    0.00000E+00     0.00
   75.00    45.00      -6.01 -999.99   -6.01    0.00000     0.00  LINEAR    6.55180E-04  -107.04    0.00000E+00     0.00
   80.00    45.00      -6.02 -999.99   -6.02    0.00000     0.00  LINEAR    6.54546E-04    85.81    0.00000E+00     0.00
   85.00    45.00       1.20 -999.99    1.20    0.00000     0.00  LINEAR    1.50277E-03    90.87    0.00000E+00     0.00
   90.00    45.00      -6.75 -999.99   -6.75    0.00000     0.00  LINEAR    6.01729E-04   111.75    0.00000E+00     0.00
    0.00    50.00    -999.99 -999.99 -999.99    0.00000     0.00            0.00000E+00     0.00    0.00000E+00     0.00
    5.00    50.00      -5.62 -999.99   -5.62    0.00000     0.00  LINEAR    6.85350E-04   141.79    0.00000E+00     0.00
   10.00    50.00       0.69 -999.99    0.69    0.00000     0.00  LINEAR    1.41739E-03   159.53    0.00000E+00     0.00
   15.00    50.00       4.85 -999.99    4.85    0.00000     0.00  LINEAR    2.28826E-03   173.80    0.00000E+00     0.00
   20.00    50.00       6.53 -999.99    6.53    0.00000     0.00  LINEAR    2.77569E-03  -172.55    0.00000E+00     0.00
   25.00    50.00       6.98 -999.99    6.98    0.00000     0.00  LINEAR    2.92205E-03  -157.83    0.00000E+00     0.00
   30.00    50.00       5.54 -999.99    5.54    0.00000     0.00  LINEAR    2.47661E-03  -143.19    0.00000E+00     0.00
   35.00    50.00       0.39 -999.99    0.39    0.00000     0.00  LINEAR    1.36835E-03  -129.33    0.00000E+00     0.00
   40.00    50.00     -29.00 -999.99  -29.00    0.00000     0.00  LINEAR    4.64018E-05    68.77    0.00000E+00     0.00
   45.00    50.00      -3.04 -999.99   -3.04    0.00000     0.00  LINEAR    9.21838E-04    73.57    0.00000E+00     0.00
   50.00    50.00      -6.16 -999.99   -6.16    0.00000     0.00  LINEAR    6.44090E-04    93.51    0.00000E+00     0.00
   55.00    50.00      -6.42 -999.99   -6.42    0.00000     0.00  LINEAR    6.25077E-04   -89.66    0.00000E+00     0.00
   60.00    50.00       1.58 -999.99    1.58    0.00000     0.00  LINEAR    1.56926E-03   -74.46    0.00000E+00     0.00
[...]
   40.00   315.00     -32.65 -999.99  -32.65    0.00000     0.00  LINEAR    3.05017E-05    98.56    0.00000E+00     0.00
   45.00   315.00      -4.33 -999.99   -4.33    0.00000     0.00  LINEAR    7.94386E-04    -1.37    0.00000E+00     0.00
   50.00   315.00      -5.63 -999.99   -5.63    0.00000     0.00  LINEAR    6.84408E-04   104.50    0.00000E+00     0.00
   55.00   315.00      -6.60 -999.99   -6.60    0.00000     0.00  LINEAR    6.11753E-04    -5.41    0.00000E+00     0.00
   60.00   315.00       2.67 -999.99    2.67    0.00000     0.00  LINEAR    1.77886E-03    68.69    0.00000E+00     0.00
   65.00   315.00      -2.01 -999.99   -2.01    0.00000     0.00  LINEAR    1.03827E-03   125.73    0.00000E+00     0.00
   70.00   315.00      -7.53 -999.99   -7.53    0.00000     0.00  LINEAR    5.49786E-04    -8.50    0.00000E+00     0.00
   75.00   315.00      -5.55 -999.99   -5.55    0.00000     0.00  LINEAR    6.90342E-04    30.65    0.00000E+00     0.00
   80.00   315.00      -7.40 -999.99   -7.40    0.00000     0.00  LINEAR    5.58394E-04  -101.50    0.00000E+00     0.00
   85.00   315.00      -0.31 -999.99   -0.31    0.00000     0.00  LINEAR    1.26264E-03   -81.54    0.00000E+00     0.00
   90.00   315.00      -7.99 -999.99   -7.99    0.00000     0.00  LINEAR    5.21441E-04   -44.67    0.00000E+00     0.00
    0.00   320.00    -999.99 -999.99 -999.99    0.00000     0.00            0.00000E+00     0.00    0.00000E+00     0.00
    5.00   320.00      -5.12 -999.99   -5.12    0.00000     0.00  LINEAR    7.25551E-04   -92.74    0.00000E+00     0.00
   10.00   320.00       0.67 -999.99    0.67    0.00000     0.00  LINEAR    1.41265E-03    49.13    0.00000E+00     0.00
   15.00   320.00       4.67 -999.99    4.67    0.00000     0.00  LINEAR    2.23987E-03  -175.59    0.00000E+00     0.00
   20.00   320.00       7.02 -999.99    7.02    0.00000     0.00  LINEAR    2.93704E-03   -44.06    0.00000E+00     0.00
   25.00   320.00       6.62 -999.99    6.62    0.00000     0.00  LINEAR    2.80527E-03    82.86    0.00000E+00     0.00
   30.00   320.00       5.42 -999.99    5.42    0.00000     0.00  LINEAR    2.44313E-03  -144.20    0.00000E+00     0.00
   35.00   320.00       0.82 -999.99    0.82    0.00000     0.00  LINEAR    1.43730E-03   -26.44    0.00000E+00     0.00
   40.00   320.00     -43.21 -999.99  -43.21    0.00000     0.00  LINEAR    9.03843E-06    45.33    0.00000E+00     0.00
   45.00   320.00      -3.78 -999.99   -3.78    0.00000     0.00  LINEAR    8.47051E-04    12.58    0.00000E+00     0.00
   50.00   320.00      -6.09 -999.99   -6.09    0.00000     0.00  LINEAR    6.49057E-04   116.18    0.00000E+00     0.00
   55.00   320.00      -6.89 -999.99   -6.89    0.00000     0.00  LINEAR    5.91939E-04    10.73    0.00000E+00     0.00
   60.00   320.00       2.24 -999.99    2.24    0.00000     0.00  LINEAR    1.69403E-03    89.55    0.00000E+00     0.00
   65.00   320.00      -2.46 -999.99   -2.46    0.00000     0.00  LINEAR    9.85630E-04   153.27    0.00000E+00     0.00
   70.00   320.00      -7.66 -999.99   -7.66    0.00000     0.00  LINEAR    5.41479E-04    -1.79    0.00000E+00     0.00
   75.00   320.00      -5.80 -999.99   -5.80    0.00000     0.00  LINEAR    6.71114E-04    49.95    0.00000E+00     0.00
   80.00   320.00      -8.65 -999.99   -8.65    0.00000     0.00  LINEAR    4.83373E-04   -72.16    0.00000E+00     0.00
   85.00   320.00      -0.58 -999.99   -0.58    0.00000     0.00  LINEAR    1.22367E-03   -53.18    0.00000E+00     0.00
   90.00   320.00      -7.58 -999.99   -7.58    0.00000     0.00  LINEAR    5.46795E-04   -17.92    0.00000E+00     0.00
    0.00   325.00    -999.99 -999.99 -999.99    0.00000     0.00            0.00000E+00     0.00    0.00000E+00     0.00
    5.00   325.00      -5.13 -999.99   -5.13    0.00000     0.00  LINEAR    7.24881E-04   -91.85    0.00000E+00     0.00
   10.00   325.00       0.72 -999.99    0.72    0.00000     0.00  LINEAR    1.42127E-03    50.54    0.00000E+00     0.00
   15.00   325.00       4.51 -999.99    4.51    0.00000     0.00  LINEAR    2.19837E-03  -173.19    0.00000E+00     0.00
   20.00   325.00       7.08 -999.99    7.08    0.00000     0.00  LINEAR    2.95538E-03   -40.07    0.00000E+00     0.00
   25.00   325.00       6.69 -999.99    6.69    0.00000     0.00  LINEAR    2.82675E-03    87.70    0.00000E+00     0.00
   30.00   325.00       5.63 -999.99    5.63    0.00000     0.00  LINEAR    2.50320E-03  -140.83    0.00000E+00     0.00
   35.00   325.00       0.73 -999.99    0.73    0.00000     0.00  LINEAR    1.42347E-03   -22.42    0.00000E+00     0.00
   40.00   325.00     -26.95 -999.99  -26.95    0.00000     0.00  LINEAR    5.88121E-05   -67.54    0.00000E+00     0.00
   45.00   325.00      -3.16 -999.99   -3.16    0.00000     0.00  LINEAR    9.09426E-04    14.14    0.00000E+00     0.00
   50.00   325.00      -6.93 -999.99   -6.93    0.00000     0.00  LINEAR    5.89452E-04   113.08    0.00000E+00     0.00
   55.00   325.00      -6.01 -999.99   -6.01    0.00000     0.00  LINEAR    6.55127E-04    15.75    0.00000E+00     0.00
   60.00   325.00       1.32 -999.99    1.32    0.00000     0.00  LINEAR    1.52372E-03    98.10    0.00000E+00     0.00
   65.00   325.00      -2.43 -999.99   -2.43    0.00000     0.00  LINEAR    9.88870E-04   175.67    0.00000E+00     0.00
   70.00   325.00     -10.28 -999.99  -10.28    0.00000     0.00  LINEAR    4.00741E-04    -0.83    0.00000E+00     0.00
   75.00   325.00      -6.04 -999.99   -6.04    0.00000     0.00  LINEAR    6.52889E-04    70.91    0.00000E+00     0.00
   80.00   325.00      -8.17 -999.99   -8.17    0.00000     0.00  LINEAR    5.10912E-04   -68.09    0.00000E+00     0.00
   85.00   325.00       0.18 -999.99    0.18    0.00000     0.00  LINEAR    1.33654E-03   -47.36    0.00000E+00     0.00
   90.00   325.00      -7.74 -999.99   -7.74    0.00000     0.00  LINEAR    5.36731E-04   -17.12    0.00000E+00     0.00
    0.00   330.00    -999.99 -999.99 -999.99    0.00000     0.00            0.00000E+00     0.00    0.00000E+00     0.00
    5.00   330.00      -5.13 -999.99   -5.13    0.00000     0.00  LINEAR    7.24564E-04   -91.96    0.00000E+00     0.00
   10.00   330.00       0.75 -999.99    0.75    0.00000     0.00  LINEAR    1.42639E-03    49.60    0.00000E+00     0.00
   15.00   330.00       4.36 -999.99    4.36    0.00000     0.00  LINEAR    2.16210E-03  -173.93    0.00000E+00     0.00
   20.00   330.00       7.01 -999.99    7.01    0.00000     0.00  LINEAR    2.93338E-03   -40.31    0.00000E+00     0.00
   25.00   330.00       6.91 -999.99    6.91    0.00000     0.00  LINEAR    2.89901E-03    88.23    0.00000E+00     0.00
   30.00   330.00       5.79 -999.99    5.79    0.00000     0.00  LINEAR    2.54900E-03  -143.94    0.00000E+00     0.00
   35.00   330.00       0.69 -999.99    0.69    0.00000     0.00  LINEAR    1.41673E-03   -25.60    0.00000E+00     0.00
   40.00   330.00     -21.16 -999.99  -21.16    0.00000     0.00  LINEAR    1.14510E-04   -89.26    0.00000E+00     0.00
   45.00   330.00      -2.99 -999.99   -2.99    0.00000     0.00  LINEAR    9.27498E-04     8.39    0.00000E+00     0.00
   50.00   330.00      -6.79 -999.99   -6.79    0.00000     0.00  LINEAR    5.99139E-04   105.04    0.00000E+00     0.00
   55.00   330.00      -6.06 -999.99   -6.06    0.00000     0.00  LINEAR    6.51078E-04    19.12    0.00000E+00     0.00
   60.00   330.00       1.22 -999.99    1.22    0.00000     0.00  LINEAR    1.50558E-03    97.78    0.00000E+00     0.00
   65.00   330.00      -2.32 -999.99   -2.32    0.00000     0.00  LINEAR    1.00140E-03   176.01    0.00000E+00     0.00
   70.00   330.00     -10.07 -999.99  -10.07    0.00000     0.00  LINEAR    4.10388E-04    -0.58    0.00000E+00     0.00
   75.00   330.00      -5.68 -999.99   -5.68    0.00000     0.00  LINEAR    6.80322E-04    68.86    0.00000E+00     0.00
   80.00   330.00      -7.78 -999.99   -7.78    0.00000     0.00  LINEAR    5.34303E-04   -74.99    0.00000E+00     0.00
   85.00   330.00       0.35 -999.99    0.35    0.00000     0.00  LINEAR    1.36176E-03   -52.64    0.00000E+00     0.00
   90.00   330.00      -7.40 -999.99   -7.40    0.00000     0.00  LINEAR    5.58277E-04   -21.23    0.00000E+00     0.00
    0.00   335.00    -999.99 -999.99 -999.99    0.00000     0.00            0.00000E+00     0.00    0.00000E+00     0.00
    5.00   335.00      -5.13 -999.99   -5.13    0.00000     0.00  LINEAR    7.24512E-04   -93.08    0.00000E+00     0.00
   10.00   335.00       0.76 -999.99    0.76    0.00000     0.00  LINEAR    1.42796E-03    46.43    0.00000E+00     0.00
   15.00   335.00       4.26 -999.99    4.26    0.00000     0.00  LINEAR    2.13736E-03  -177.98    0.00000E+00     0.00
   20.00   335.00       6.85 -999.99    6.85    0.00000     0.00  LINEAR    2.87764E-03   -44.81    0.00000E+00     0.00
   25.00   335.00       7.16 -999.99    7.16    0.00000     0.00  LINEAR    2.98303E-03    83.61    0.00000E+00     0.00
   30.00   335.00       5.87 -999.99    5.87    0.00000     0.00  LINEAR    2.57170E-03  -152.34    0.00000E+00     0.00
   35.00   335.00       0.80 -999.99    0.80    0.00000     0.00  LINEAR    1.43439E-03   -35.72    0.00000E+00     0.00
   40.00   335.00     -17.96 -999.99  -17.96    0.00000     0.00  LINEAR    1.65459E-04   -98.52    0.00000E+00     0.00
   45.00   335.00      -2.52 -999.99   -2.52    0.00000     0.00  LINEAR    9.78943E-04    -5.62    0.00000E+00     0.00
   50.00   335.00      -6.48 -999.99   -6.48    0.00000     0.00  LINEAR    6.20769E-04    92.36    0.00000E+00     0.00
   55.00   335.00      -6.95 -999.99   -6.95    0.00000     0.00  LINEAR    5.88113E-04    14.76    0.00000E+00     0.00
   60.00   335.00       1.39 -999.99    1.39    0.00000     0.00  LINEAR    1.53613E-03    85.18    0.00000E+00     0.00
   65.00   335.00      -3.04 -999.99   -3.04    0.00000     0.00  LINEAR    9.21624E-04   162.45    0.00000E+00     0.00
   70.00   335.00      -9.30 -999.99   -9.30    0.00000     0.00  LINEAR    4.48748E-04   -19.44    0.00000E+00     0.00
   75.00   335.00      -6.22 -999.99   -6.22    0.00000     0.00  LINEAR    6.39508E-04    55.33    0.00000E+00     0.00
   80.00   335.00      -7.54 -999.99   -7.54    0.00000     0.00  LINEAR    5.49325E-04   -92.49    0.00000E+00     0.00
   85.00   335.00       0.39 -999.99    0.39    0.00000     0.00  LINEAR    1.36885E-03   -68.34    0.00000E+00     0.00
   90.00   335.00      -7.67 -999.99   -7.67    0.00000     0.00  LINEAR    5.41324E-04   -38.73    0.00000E+00     0.00
    0.00   340.00    -999.99 -999.99 -999.99    0.00000     0.00            0.00000E+00     0.00    0.00000E+00     0.00
    5.00   340.00      -5.13 -999.99   -5.13    0.00000     0.00  LINEAR    7.24535E-04   -95.22    0.00000E+00     0.00
   10.00   340.00       0.75 -999.99    0.75    0.00000     0.00  LINEAR    1.42671E-03    41.08    0.00000E+00     0.00
   15.00   340.00       4.21 -999.99    4.21    0.00000     0.00  LINEAR    2.12542E-03   174.69    0.00000E+00     0.00
   20.00   340.00       6.65 -999.99    6.65    0.00000     0.00  LINEAR    2.81215E-03   -53.68    0.00000E+00     0.00
   25.00   340.00       7.31 -999.99    7.31    0.00000     0.00  LINEAR    3.03708E-03    73.43    0.00000E+00     0.00
   30.00   340.00       5.88 -999.99    5.88    0.00000     0.00  LINEAR    2.57494E-03  -165.99    0.00000E+00     0.00
   35.00   340.00       1.02 -999.99    1.02    0.00000     0.00  LINEAR    1.47118E-03   -52.14    0.00000E+00     0.00
   40.00   340.00     -16.68 -999.99  -16.68    0.00000     0.00  LINEAR    1.91735E-04   -95.44    0.00000E+00     0.00
   45.00   340.00      -1.58 -999.99   -1.58    0.00000     0.00  LINEAR    1.09074E-03   -24.09    0.00000E+00     0.00
   50.00   340.00      -6.20 -999.99   -6.20    0.00000     0.00  LINEAR    6.41178E-04    70.02    0.00000E+00     0.00
   55.00   340.00      -6.86 -999.99   -6.86    0.00000     0.00  LINEAR    5.93772E-04   -11.42    0.00000E+00     0.00
   60.00   340.00       1.49 -999.99    1.49    0.00000     0.00  LINEAR    1.55348E-03    56.32    0.00000E+00     0.00
   65.00   340.00      -3.91 -999.99   -3.91    0.00000     0.00  LINEAR    8.33926E-04   129.38    0.00000E+00     0.00
   70.00   340.00      -9.64 -999.99   -9.64    0.00000     0.00  LINEAR    4.31178E-04   -36.41    0.00000E+00     0.00
   75.00   340.00      -6.68 -999.99   -6.68    0.00000     0.00  LINEAR    6.06338E-04    31.50    0.00000E+00     0.00
   80.00   340.00      -5.93 -999.99   -5.93    0.00000     0.00  LINEAR    6.61225E-04  -119.62    0.00000E+00     0.00
   85.00   340.00       1.22 -999.99    1.22    0.00000     0.00  LINEAR    1.50532E-03   -97.96    0.00000E+00     0.00
   90.00   340.00      -7.36 -999.99   -7.36    0.00000     0.00  LINEAR    5.60797E-04   -73.46    0.00000E+00     0.00
    0.00   345.00    -999.99 -999.99 -999.99    0.00000     0.00            0.00000E+00     0.00    0.00000E+00     0.00
    5.00   345.00      -5.14 -999.99   -5.14    0.00000     0.00  LINEAR    7.24372E-04   -98.36    0.00000E+00     0.00
   10.00   345.00       0.73 -999.99    0.73    0.00000     0.00  LINEAR    1.42390E-03    33.61    0.00000E+00     0.00
   15.00   345.00       4.20 -999.99    4.20    0.00000     0.00  LINEAR    2.12301E-03   164.26    0.00000E+00     0.00
   20.00   345.00       6.49 -999.99    6.49    0.00000     0.00  LINEAR    2.76106E-03   -66.87    0.00000E+00     0.00
   25.00   345.00       7.34 -999.99    7.34    0.00000     0.00  LINEAR    3.04767E-03    57.64    0.00000E+00     0.00
   30.00   345.00       5.88 -999.99    5.88    0.00000     0.00  LINEAR    2.57542E-03   174.50    0.00000E+00     0.00
   35.00   345.00       1.19 -999.99    1.19    0.00000     0.00  LINEAR    1.50099E-03   -74.33    0.00000E+00     0.00
   40.00   345.00     -17.57 -999.99  -17.57    0.00000     0.00  LINEAR    1.73054E-04   -90.00    0.00000E+00     0.00
   45.00   345.00      -1.32 -999.99   -1.32    0.00000     0.00  LINEAR    1.12464E-03   -45.58    0.00000E+00     0.00
   50.00   345.00      -5.81 -999.99   -5.81    0.00000     0.00  LINEAR    6.70302E-04    41.73    0.00000E+00     0.00
   55.00   345.00      -5.53 -999.99   -5.53    0.00000     0.00  LINEAR    6.91955E-04   -49.62    0.00000E+00     0.00
   60.00   345.00       1.90 -999.99    1.90    0.00000     0.00  LINEAR    1.62761E-03    19.30    0.00000E+00     0.00
   65.00   345.00      -2.74 -999.99   -2.74    0.00000     0.00  LINEAR    9.53986E-04    87.22    0.00000E+00     0.00
   70.00   345.00     -11.00 -999.99  -11.00    0.00000     0.00  LINEAR    3.68594E-04   -63.39    0.00000E+00     0.00
   75.00   345.00      -6.12 -999.99   -6.12    0.00000     0.00  LINEAR    6.46506E-04    -9.01    0.00000E+00     0.00
   80.00   345.00      -6.66 -999.99   -6.66    0.00000     0.00  LINEAR    6.07992E-04  -146.08    0.00000E+00     0.00
   85.00   345.00       1.01 -999.99    1.01    0.00000     0.00  LINEAR    1.47060E-03  -130.51    0.00000E+00     0.00
   90.00   345.00      -7.51 -999.99   -7.51    0.00000     0.00  LINEAR    5.51059E-04  -104.01    0.00000E+00     0.00
    0.00   350.00    -999.99 -999.99 -999.99    0.00000     0.00            0.00000E+00     0.00    0.00000E+00     0.00
    5.00   350.00      -5.14 -999.99   -5.14    0.00000     0.00  LINEAR    7.23716E-04  -102.49    0.00000E+00     0.00
   10.00   350.00       0.72 -999.99    0.72    0.00000     0.00  LINEAR    1.42138E-03    24.06    0.00000E+00     0.00
   15.00   350.00       4.20 -999.99    4.20    0.00000     0.00  LINEAR    2.12313E-03   150.93    0.00000E+00     0.00
   20.00   350.00       6.40 -999.99    6.40    0.00000     0.00  LINEAR    2.73271E-03   -84.05    0.00000E+00     0.00
   25.00   350.00       7.28 -999.99    7.28    0.00000     0.00  LINEAR    3.02545E-03    36.38    0.00000E+00     0.00
   30.00   350.00       5.95 -999.99    5.95    0.00000     0.00  LINEAR    2.59576E-03   149.07    0.00000E+00     0.00
   35.00   350.00       1.19 -999.99    1.19    0.00000     0.00  LINEAR    1.50050E-03  -102.68    0.00000E+00     0.00
   40.00   350.00     -21.69 -999.99  -21.69    0.00000     0.00  LINEAR    1.07683E-04   -91.58    0.00000E+00     0.00
   45.00   350.00      -2.20 -999.99   -2.20    0.00000     0.00  LINEAR    1.01574E-03   -76.83    0.00000E+00     0.00
   50.00   350.00      -6.13 -999.99   -6.13    0.00000     0.00  LINEAR    6.46022E-04     7.03    0.00000E+00     0.00
   55.00   350.00      -4.43 -999.99   -4.43    0.00000     0.00  LINEAR    7.85696E-04   -91.67    0.00000E+00     0.00
   60.00   350.00       2.11 -999.99    2.11    0.00000     0.00  LINEAR    1.66870E-03   -25.22    0.00000E+00     0.00
   65.00   350.00      -2.21 -999.99   -2.21    0.00000     0.00  LINEAR    1.01420E-03    42.54    0.00000E+00     0.00
   70.00   350.00     -10.77 -999.99  -10.77    0.00000     0.00  LINEAR    3.78662E-04  -110.96    0.00000E+00     0.00
   75.00   350.00      -5.53 -999.99   -5.53    0.00000     0.00  LINEAR    6.92592E-04   -58.40    0.00000E+00     0.00
   80.00   350.00      -8.85 -999.99   -8.85    0.00000     0.00  LINEAR    4.72135E-04   156.11    0.00000E+00     0.00
   85.00   350.00      -0.32 -999.99   -0.32    0.00000     0.00  LINEAR    1.26171E-03   175.97    0.00000E+00     0.00
   90.00   350.00      -8.98 -999.99   -8.98    0.00000     0.00  LINEAR    4.65358E-04  -155.82    0.00000E+00     0.00
    0.00   355.00    -999.99 -999.99 -999.99    0.00000     0.00            0.00000E+00     0.00    0.00000E+00     0.00
    5.00   355.00      -5.16 -999.99   -5.16    0.00000     0.00  LINEAR    7.22255E-04  -107.59    0.00000E+00     0.00
   10.00   355.00       0.72 -999.99    0.72    0.00000     0.00  LINEAR    1.42169E-03    12.47    0.00000E+00     0.00
   15.00   355.00       4.18 -999.99    4.18    0.00000     0.00  LINEAR    2.11773E-03   134.77    0.00000E+00     0.00
   20.00   355.00       6.33 -999.99    6.33    0.00000     0.00  LINEAR    2.71123E-03  -104.80    0.00000E+00     0.00
   25.00   355.00       7.18 -999.99    7.18    0.00000     0.00  LINEAR    2.99166E-03     9.82    0.00000E+00     0.00
   30.00   355.00       6.06 -999.99    6.06    0.00000     0.00  LINEAR    2.62975E-03   118.52    0.00000E+00     0.00
   35.00   355.00       1.05 -999.99    1.05    0.00000     0.00  LINEAR    1.47732E-03  -138.01    0.00000E+00     0.00
   40.00   355.00     -31.51 -999.99  -31.51    0.00000     0.00  LINEAR    3.47643E-05  -122.26    0.00000E+00     0.00
   45.00   355.00      -3.15 -999.99   -3.15    0.00000     0.00  LINEAR    9.10671E-04  -122.93    0.00000E+00     0.00
   50.00   355.00      -6.84 -999.99   -6.84    0.00000     0.00  LINEAR    5.95322E-04   -41.03    0.00000E+00     0.00
   55.00   355.00      -4.32 -999.99   -4.32    0.00000     0.00  LINEAR    7.96140E-04  -138.14    0.00000E+00     0.00
   60.00   355.00       2.60 -999.99    2.60    0.00000     0.00  LINEAR    1.76425E-03   -76.45    0.00000E+00     0.00
   65.00   355.00      -1.61 -999.99   -1.61    0.00000     0.00  LINEAR    1.08678E-03   -14.52    0.00000E+00     0.00
   70.00   355.00     -11.95 -999.99  -11.95    0.00000     0.00  LINEAR    3.30399E-04  -170.95    0.00000E+00     0.00
   75.00   355.00      -6.12 -999.99   -6.12    0.00000     0.00  LINEAR    6.46717E-04  -118.56    0.00000E+00     0.00
   80.00   355.00      -7.25 -999.99   -7.25    0.00000     0.00  LINEAR    5.67964E-04    95.09    0.00000E+00     0.00
   85.00   355.00       0.55 -999.99    0.55    0.00000     0.00  LINEAR    1.39399E-03   112.93    0.00000E+00     0.00
   90.00   355.00      -7.52 -999.99   -7.52    0.00000     0.00  LINEAR    5.50287E-04   139.21    0.00000E+00     0.00






 ***** DATA CARD NO. 16   EN   0     0     0     0  0.00000E+00  0.00000E+00  0.00000E+00  0.00000E+00  0.00000E+00  0.00000E+00

 RUN TIME =     0.234
