1



                                 *********************************************

                                    NUMERICAL ELECTROMAGNETICS CODE (NEC-2D)

                                 *********************************************




                                     - - - - COMMENTS - - - -


                                                                                                     
                                                                                                     




                                 - - - STRUCTURE SPECIFICATION - - -

                                     COORDINATES MUST BE INPUT IN
                                     METERS OR BE SCALED TO METERS
                                     BEFORE STRUCTURE INPUT IS ENDED


  WIRE                                                                               NO. OF    FIRST  LAST     TAG
  NO.        X1         Y1         Z1          X2         Y2         Z2      RADIUS   SEG.     SEG.   SEG.     NO.
     1  -20.00000  -20.00000    0.35000   -21.76000  -21.78000    2.70000    0.00100     25        1    25     101
     2  -21.76000  -21.78000    2.70000   -20.00000  -20.00000   15.20000    0.00100     50       26    75     102
     3  -20.00000  -20.00000    0.35000   -22.50000  -20.01000    2.70000    0.00100     25       76   100     103
     4  -22.50000  -20.01000    2.70000   -20.00000  -20.00000   15.20000    0.00100     50      101   150     104
     5  -20.00000  -20.00000    0.35000   -21.78000  -17.78000    2.70000    0.00100     25      151   175     105
     6  -21.78000  -17.78000    2.70000   -20.00000  -20.00000   15.20000    0.00100     50      176   225     106
     7  -20.00000  -20.00000    0.35000   -20.01000  -17.50000    2.70000    0.00100     25      226   250     107
     8  -20.01000  -17.50000    2.70000   -20.00000  -20.00000   15.20000    0.00100     50      251   300     108
     9  -20.00000  -20.00000    0.35000   -17.78000  -17.76000    2.70000    0.00100     25      301   325     109
    10  -17.78000  -17.76000    2.70000   -20.00000  -20.00000   15.20000    0.00100     50      326   375     110
    11  -20.00000  -20.00000    0.35000   -17.50000  -19.99000    2.70000    0.00100     25      376   400     111
    12  -17.50000  -19.99000    2.70000   -20.00000  -20.00000   15.20000    0.00100     50      401   450     112
    13  -20.00000  -20.00000    0.35000   -17.76000  -21.76000    2.70000    0.00100     25      451   475     113
    14  -17.76000  -21.76000    2.70000   -20.00000  -20.00000   15.20000    0.00100     50      476   525     114
    15  -20.00000  -20.00000    0.35000   -19.99000  -22.50000    2.70000    0.00100     25      526   550     115
    16  -19.99000  -22.50000    2.70000   -20.00000  -20.00000   15.20000    0.00100     50      551   600     116
    17  -20.00000  -20.00000   -0.35000   -20.00000  -20.00000    0.35000    0.00100      3      601   603     117
    18  -20.00000  -20.00000   -0.35000   -21.76000  -21.78000   -2.70000    0.00100     25      604   628     118
    19  -21.76000  -21.78000   -2.70000   -20.00000  -20.00000  -15.20000    0.00100     50      629   678     119
    20  -20.00000  -20.00000   -0.35000   -22.50000  -20.01000   -2.70000    0.00100     25      679   703     120
    21  -22.50000  -20.01000   -2.70000   -20.00000  -20.00000  -15.20000    0.00100     50      704   753     121
    22  -20.00000  -20.00000   -0.35000   -21.78000  -17.78000   -2.70000    0.00100     25      754   778     122
    23  -21.78000  -17.78000   -2.70000   -20.00000  -20.00000  -15.20000    0.00100     50      779   828     123
    24  -20.00000  -20.00000   -0.35000   -20.01000  -17.50000   -2.70000    0.00100     25      829   853     124
    25  -20.01000  -17.50000   -2.70000   -20.00000  -20.00000  -15.20000    0.00100     50      854   903     125
    26  -20.00000  -20.00000   -0.35000   -17.78000  -17.76000   -2.70000    0.00100     25      904   928     126
    27  -17.78000  -17.76000   -2.70000   -20.00000  -20.00000  -15.20000    0.00100     50      929   978     127
    28  -20.00000  -20.00000   -0.35000   -17.50000  -19.99000   -2.70000    0.00100     25      979  1003     128
    29  -17.50000  -19.99000   -2.70000   -20.00000  -20.00000  -15.20000    0.00100     50     1004  1053     129
    30  -20.00000  -20.00000   -0.35000   -17.76000  -21.76000   -2.70000    0.00100     25     1054  1078     130
    31  -17.76000  -21.76000   -2.70000   -20.00000  -20.00000  -15.20000    0.00100     50     1079  1128     131
    32  -20.00000  -20.00000   -0.35000   -19.99000  -22.50000   -2.70000    0.00100     25     1129  1153     132
    33  -19.99000  -22.50000   -2.70000   -20.00000  -20.00000  -15.20000    0.00100     50     1154  1203     133
    34    0.00000  -20.00000    0.35000     0.01000  -22.50000    2.70000    0.00100     25     1204  1228     134
    35    0.01000  -22.50000    2.70000     0.00000  -20.00000   15.20000    0.00100     50     1229  1278     135
    36    0.00000  -20.00000    0.35000    -1.76000  -21.78000    2.70000    0.00100     25     1279  1303     136
    37   -1.76000  -21.78000    2.70000     0.00000  -20.00000   15.20000    0.00100     50     1304  1353     137
    38    0.00000  -20.00000    0.35000    -2.83000  -19.69000    2.70000    0.00100     25     1354  1378     138
    39   -2.83000  -19.69000    2.70000     0.00000  -20.00000   15.20000    0.00100     50     1379  1428     139
    40    0.00000  -20.00000    0.35000    -1.78000  -18.24000    2.70000    0.00100     25     1429  1453     140
    41   -1.78000  -18.24000    2.70000     0.00000  -20.00000   15.20000    0.00100     50     1454  1503     141
    42    0.00000  -20.00000    0.35000    -0.02000  -16.84000    2.70000    0.00100     25     1504  1528     142
    43   -0.02000  -16.84000    2.70000     0.00000  -20.00000   15.20000    0.00100     50     1529  1578     143
    44    0.00000  -20.00000    0.35000     1.76000  -18.22000    2.70000    0.00100     25     1579  1603     144
    45    1.76000  -18.22000    2.70000     0.00000  -20.00000   15.20000    0.00100     50     1604  1653     145
    46    0.00000  -20.00000    0.35000     2.83000  -19.66000    2.70000    0.00100     25     1654  1678     146
    47    2.83000  -19.66000    2.70000     0.00000  -20.00000   15.20000    0.00100     50     1679  1728     147
    48    0.00000  -20.00000    0.35000     1.78000  -21.76000    2.70000    0.00100     25     1729  1753     148
    49    1.78000  -21.76000    2.70000     0.00000  -20.00000   15.20000    0.00100     50     1754  1803     149
    50    0.00000  -20.00000   -0.35000     0.00000  -20.00000    0.35000    0.00100      3     1804  1806     150
    51    0.00000  -20.00000   -0.35000     0.01000  -22.50000   -2.70000    0.00100     25     1807  1831     151
    52    0.01000  -22.50000   -2.70000     0.00000  -20.00000  -15.20000    0.00100     50     1832  1881     152
    53    0.00000  -20.00000   -0.35000    -1.76000  -21.78000   -2.70000    0.00100     25     1882  1906     153
    54   -1.76000  -21.78000   -2.70000     0.00000  -20.00000  -15.20000    0.00100     50     1907  1956     154
    55    0.00000  -20.00000   -0.35000    -2.83000  -19.69000   -2.70000    0.00100     25     1957  1981     155
    56   -2.83000  -19.69000   -2.70000     0.00000  -20.00000  -15.20000    0.00100     50     1982  2031     156
    57    0.00000  -20.00000   -0.35000    -1.78000  -18.24000   -2.70000    0.00100     25     2032  2056     157
    58   -1.78000  -18.24000   -2.70000     0.00000  -20.00000  -15.20000    0.00100     50     2057  2106     158
    59    0.00000  -20.00000   -0.35000    -0.02000  -16.84000   -2.70000    0.00100     25     2107  2131     159
    60   -0.02000  -16.84000   -2.70000     0.00000  -20.00000  -15.20000    0.00100     50     2132  2181     160
    61    0.00000  -20.00000   -0.35000     1.76000  -18.22000   -2.70000    0.00100     25     2182  2206     161
    62    1.76000  -18.22000   -2.70000     0.00000  -20.00000  -15.20000    0.00100     50     2207  2256     162
    63    0.00000  -20.00000   -0.35000     2.83000  -19.66000   -2.70000    0.00100     25     2257  2281     163
    64    2.83000  -19.66000   -2.70000     0.00000  -20.00000  -15.20000    0.00100     50     2282  2331     164
    65    0.00000  -20.00000   -0.35000     1.78000  -21.76000   -2.70000    0.00100     25     2332  2356     165
    66    1.78000  -21.76000   -2.70000     0.00000  -20.00000  -15.20000    0.00100     50     2357  2406     166
    67   20.00000  -20.00000    0.35000    21.78000  -21.76000    2.70000    0.00100     25     2407  2431     167
    68   21.78000  -21.76000    2.70000    20.00000  -20.00000   15.20000    0.00100     50     2432  2481     168
    69   20.00000  -20.00000    0.35000    20.01000  -22.50000    2.70000    0.00100     25     2482  2506     169
    70   20.01000  -22.50000    2.70000    20.00000  -20.00000   15.20000    0.00100     50     2507  2556     170
    71   20.00000  -20.00000    0.35000    17.78000  -21.78000    2.70000    0.00100     25     2557  2581     171
    72   17.78000  -21.78000    2.70000    20.00000  -20.00000   15.20000    0.00100     50     2582  2631     172
    73   20.00000  -20.00000    0.35000    17.50000  -20.01000    2.70000    0.00100     25     2632  2656     173
    74   17.50000  -20.01000    2.70000    20.00000  -20.00000   15.20000    0.00100     50     2657  2706     174
    75   20.00000  -20.00000    0.35000    17.76000  -17.78000    2.70000    0.00100     25     2707  2731     175
    76   17.76000  -17.78000    2.70000    20.00000  -20.00000   15.20000    0.00100     50     2732  2781     176
    77   20.00000  -20.00000    0.35000    19.99000  -17.50000    2.70000    0.00100     25     2782  2806     177
    78   19.99000  -17.50000    2.70000    20.00000  -20.00000   15.20000    0.00100     50     2807  2856     178
    79   20.00000  -20.00000    0.35000    21.76000  -17.76000    2.70000    0.00100     25     2857  2881     179
    80   21.76000  -17.76000    2.70000    20.00000  -20.00000   15.20000    0.00100     50     2882  2931     180
    81   20.00000  -20.00000    0.35000    22.50000  -19.99000    2.70000    0.00100     25     2932  2956     181
    82   22.50000  -19.99000    2.70000    20.00000  -20.00000   15.20000    0.00100     50     2957  3006     182
    83   20.00000  -20.00000   -0.35000    20.00000  -20.00000    0.35000    0.00100      3     3007  3009     183
    84   20.00000  -20.00000   -0.35000    21.78000  -21.76000   -2.70000    0.00100     25     3010  3034     184
    85   21.78000  -21.76000   -2.70000    20.00000  -20.00000  -15.20000    0.00100     50     3035  3084     185
    86   20.00000  -20.00000   -0.35000    20.01000  -22.50000   -2.70000    0.00100     25     3085  3109     186
    87   20.01000  -22.50000   -2.70000    20.00000  -20.00000  -15.20000    0.00100     50     3110  3159     187
    88   20.00000  -20.00000   -0.35000    17.78000  -21.78000   -2.70000    0.00100     25     3160  3184     188
    89   17.78000  -21.78000   -2.70000    20.00000  -20.00000  -15.20000    0.00100     50     3185  3234     189
    90   20.00000  -20.00000   -0.35000    17.50000  -20.01000   -2.70000    0.00100     25     3235  3259     190
    91   17.50000  -20.01000   -2.70000    20.00000  -20.00000  -15.20000    0.00100     50     3260  3309     191
    92   20.00000  -20.00000   -0.35000    17.76000  -17.78000   -2.70000    0.00100     25     3310  3334     192
    93   17.76000  -17.78000   -2.70000    20.00000  -20.00000  -15.20000    0.00100     50     3335  3384     193
    94   20.00000  -20.00000   -0.35000    19.99000  -17.50000   -2.70000    0.00100     25     3385  3409     194
    95   19.99000  -17.50000   -2.70000    20.00000  -20.00000  -15.20000    0.00100     50     3410  3459     195
    96   20.00000  -20.00000   -0.35000    21.76000  -17.76000   -2.70000    0.00100     25     3460  3484     196
    97   21.76000  -17.76000   -2.70000    20.00000  -20.00000  -15.20000    0.00100     50     3485  3534     197
    98   20.00000  -20.00000   -0.35000    22.50000  -19.99000   -2.70000    0.00100     25     3535  3559     198
    99   22.50000  -19.99000   -2.70000    20.00000  -20.00000  -15.20000    0.00100     50     3560  3609     199
   100  -20.00000    0.00000    0.35000   -22.50000   -0.01000    2.70000    0.00100     25     3610  3634     200
   101  -22.50000   -0.01000    2.70000   -20.00000    0.00000   15.20000    0.00100     50     3635  3684     201
   102  -20.00000    0.00000    0.35000   -21.78000    1.76000    2.70000    0.00100     25     3685  3709     202
   103  -21.78000    1.76000    2.70000   -20.00000    0.00000   15.20000    0.00100     50     3710  3759     203
   104  -20.00000    0.00000    0.35000   -19.69000    2.83000    2.70000    0.00100     25     3760  3784     204
   105  -19.69000    2.83000    2.70000   -20.00000    0.00000   15.20000    0.00100     50     3785  3834     205
   106  -20.00000    0.00000    0.35000   -18.24000    1.78000    2.70000    0.00100     25     3835  3859     206
   107  -18.24000    1.78000    2.70000   -20.00000    0.00000   15.20000    0.00100     50     3860  3909     207
   108  -20.00000    0.00000    0.35000   -16.84000    0.02000    2.70000    0.00100     25     3910  3934     208
   109  -16.84000    0.02000    2.70000   -20.00000    0.00000   15.20000    0.00100     50     3935  3984     209
   110  -20.00000    0.00000    0.35000   -18.22000   -1.76000    2.70000    0.00100     25     3985  4009     210
   111  -18.22000   -1.76000    2.70000   -20.00000    0.00000   15.20000    0.00100     50     4010  4059     211
   112  -20.00000    0.00000    0.35000   -19.66000   -2.83000    2.70000    0.00100     25     4060  4084     212
   113  -19.66000   -2.83000    2.70000   -20.00000    0.00000   15.20000    0.00100     50     4085  4134     213
   114  -20.00000    0.00000    0.35000   -21.76000   -1.78000    2.70000    0.00100     25     4135  4159     214
   115  -21.76000   -1.78000    2.70000   -20.00000    0.00000   15.20000    0.00100     50     4160  4209     215
   116  -20.00000    0.00000   -0.35000   -20.00000    0.00000    0.35000    0.00100      3     4210  4212     216
   117  -20.00000    0.00000   -0.35000   -22.50000   -0.01000   -2.70000    0.00100     25     4213  4237     217
   118  -22.50000   -0.01000   -2.70000   -20.00000    0.00000  -15.20000    0.00100     50     4238  4287     218
   119  -20.00000    0.00000   -0.35000   -21.78000    1.76000   -2.70000    0.00100     25     4288  4312     219
   120  -21.78000    1.76000   -2.70000   -20.00000    0.00000  -15.20000    0.00100     50     4313  4362     220
   121  -20.00000    0.00000   -0.35000   -19.69000    2.83000   -2.70000    0.00100     25     4363  4387     221
   122  -19.69000    2.83000   -2.70000   -20.00000    0.00000  -15.20000    0.00100     50     4388  4437     222
   123  -20.00000    0.00000   -0.35000   -18.24000    1.78000   -2.70000    0.00100     25     4438  4462     223
   124  -18.24000    1.78000   -2.70000   -20.00000    0.00000  -15.20000    0.00100     50     4463  4512     224
   125  -20.00000    0.00000   -0.35000   -16.84000    0.02000   -2.70000    0.00100     25     4513  4537     225
   126  -16.84000    0.02000   -2.70000   -20.00000    0.00000  -15.20000    0.00100     50     4538  4587     226
   127  -20.00000    0.00000   -0.35000   -18.22000   -1.76000   -2.70000    0.00100     25     4588  4612     227
   128  -18.22000   -1.76000   -2.70000   -20.00000    0.00000  -15.20000    0.00100     50     4613  4662     228
   129  -20.00000    0.00000   -0.35000   -19.66000   -2.83000   -2.70000    0.00100     25     4663  4687     229
   130  -19.66000   -2.83000   -2.70000   -20.00000    0.00000  -15.20000    0.00100     50     4688  4737     230
   131  -20.00000    0.00000   -0.35000   -21.76000   -1.78000   -2.70000    0.00100     25     4738  4762     231
   132  -21.76000   -1.78000   -2.70000   -20.00000    0.00000  -15.20000    0.00100     50     4763  4812     232
   133    0.00000    0.00000    0.35000     2.50000    0.01000    2.70000    0.00100     25     4813  4837     233
   134    2.50000    0.01000    2.70000     0.00000    0.00000   15.20000    0.00100     50     4838  4887     234
   135    0.00000    0.00000    0.35000     1.78000   -1.76000    2.70000    0.00100     25     4888  4912     235
   136    1.78000   -1.76000    2.70000     0.00000    0.00000   15.20000    0.00100     50     4913  4962     236
   137    0.00000    0.00000    0.35000    -0.31000   -2.83000    2.70000    0.00100     25     4963  4987     237
   138   -0.31000   -2.83000    2.70000     0.00000    0.00000   15.20000    0.00100     50     4988  5037     238
   139    0.00000    0.00000    0.35000    -1.76000   -1.78000    2.70000    0.00100     25     5038  5062     239
   140   -1.76000   -1.78000    2.70000     0.00000    0.00000   15.20000    0.00100     50     5063  5112     240
   141    0.00000    0.00000    0.35000    -3.16000   -0.02000    2.70000    0.00100     25     5113  5137     241
   142   -3.16000   -0.02000    2.70000     0.00000    0.00000   15.20000    0.00100     50     5138  5187     242
   143    0.00000    0.00000    0.35000    -1.78000    1.76000    2.70000    0.00100     25     5188  5212     243
   144   -1.78000    1.76000    2.70000     0.00000    0.00000   15.20000    0.00100     50     5213  5262     244
   145    0.00000    0.00000    0.35000    -0.34000    2.83000    2.70000    0.00100     25     5263  5287     245
   146   -0.34000    2.83000    2.70000     0.00000    0.00000   15.20000    0.00100     50     5288  5337     246
   147    0.00000    0.00000    0.35000     1.76000    1.78000    2.70000    0.00100     25     5338  5362     247
   148    1.76000    1.78000    2.70000     0.00000    0.00000   15.20000    0.00100     50     5363  5412     248
   149    0.00000    0.00000   -0.35000     0.00000    0.00000    0.35000    0.00100      3     5413  5415     249
   150    0.00000    0.00000   -0.35000     2.50000    0.01000   -2.70000    0.00100     25     5416  5440     250
   151    2.50000    0.01000   -2.70000     0.00000    0.00000  -15.20000    0.00100     50     5441  5490     251
   152    0.00000    0.00000   -0.35000     1.78000   -1.76000   -2.70000    0.00100     25     5491  5515     252
   153    1.78000   -1.76000   -2.70000     0.00000    0.00000  -15.20000    0.00100     50     5516  5565     253
   154    0.00000    0.00000   -0.35000    -0.31000   -2.83000   -2.70000    0.00100     25     5566  5590     254
   155   -0.31000   -2.83000   -2.70000     0.00000    0.00000  -15.20000    0.00100     50     5591  5640     255
   156    0.00000    0.00000   -0.35000    -1.76000   -1.78000   -2.70000    0.00100     25     5641  5665     256
   157   -1.76000   -1.78000   -2.70000     0.00000    0.00000  -15.20000    0.00100     50     5666  5715     257
   158    0.00000    0.00000   -0.35000    -3.16000   -0.02000   -2.70000    0.00100     25     5716  5740     258
   159   -3.16000   -0.02000   -2.70000     0.00000    0.00000  -15.20000    0.00100     50     5741  5790     259
   160    0.00000    0.00000   -0.35000    -1.78000    1.76000   -2.70000    0.00100     25     5791  5815     260
   161   -1.78000    1.76000   -2.70000     0.00000    0.00000  -15.20000    0.00100     50     5816  5865     261
   162    0.00000    0.00000   -0.35000    -0.34000    2.83000   -2.70000    0.00100     25     5866  5890     262
   163   -0.34000    2.83000   -2.70000     0.00000    0.00000  -15.20000    0.00100     50     5891  5940     263
   164    0.00000    0.00000   -0.35000     1.76000    1.78000   -2.70000    0.00100     25     5941  5965     264
   165    1.76000    1.78000   -2.70000     0.00000    0.00000  -15.20000    0.00100     50     5966  6015     265
   166   20.00000    0.00000    0.35000    22.50000    0.01000    2.70000    0.00100     25     6016  6040     266
   167   22.50000    0.01000    2.70000    20.00000    0.00000   15.20000    0.00100     50     6041  6090     267
   168   20.00000    0.00000    0.35000    21.78000   -1.76000    2.70000    0.00100     25     6091  6115     268
   169   21.78000   -1.76000    2.70000    20.00000    0.00000   15.20000    0.00100     50     6116  6165     269
   170   20.00000    0.00000    0.35000    19.69000   -2.83000    2.70000    0.00100     25     6166  6190     270
   171   19.69000   -2.83000    2.70000    20.00000    0.00000   15.20000    0.00100     50     6191  6240     271
   172   20.00000    0.00000    0.35000    18.24000   -1.78000    2.70000    0.00100     25     6241  6265     272
   173   18.24000   -1.78000    2.70000    20.00000    0.00000   15.20000    0.00100     50     6266  6315     273
   174   20.00000    0.00000    0.35000    16.84000   -0.02000    2.70000    0.00100     25     6316  6340     274
   175   16.84000   -0.02000    2.70000    20.00000    0.00000   15.20000    0.00100     50     6341  6390     275
   176   20.00000    0.00000    0.35000    18.22000    1.76000    2.70000    0.00100     25     6391  6415     276
   177   18.22000    1.76000    2.70000    20.00000    0.00000   15.20000    0.00100     50     6416  6465     277
   178   20.00000    0.00000    0.35000    19.66000    2.83000    2.70000    0.00100     25     6466  6490     278
   179   19.66000    2.83000    2.70000    20.00000    0.00000   15.20000    0.00100     50     6491  6540     279
   180   20.00000    0.00000    0.35000    21.76000    1.78000    2.70000    0.00100     25     6541  6565     280
   181   21.76000    1.78000    2.70000    20.00000    0.00000   15.20000    0.00100     50     6566  6615     281
   182   20.00000    0.00000   -0.35000    20.00000    0.00000    0.35000    0.00100      3     6616  6618     282
   183   20.00000    0.00000   -0.35000    22.50000    0.01000   -2.70000    0.00100     25     6619  6643     283
   184   22.50000    0.01000   -2.70000    20.00000    0.00000  -15.20000    0.00100     50     6644  6693     284
   185   20.00000    0.00000   -0.35000    21.78000   -1.76000   -2.70000    0.00100     25     6694  6718     285
   186   21.78000   -1.76000   -2.70000    20.00000    0.00000  -15.20000    0.00100     50     6719  6768     286
   187   20.00000    0.00000   -0.35000    19.69000   -2.83000   -2.70000    0.00100     25     6769  6793     287
   188   19.69000   -2.83000   -2.70000    20.00000    0.00000  -15.20000    0.00100     50     6794  6843     288
   189   20.00000    0.00000   -0.35000    18.24000   -1.78000   -2.70000    0.00100     25     6844  6868     289
   190   18.24000   -1.78000   -2.70000    20.00000    0.00000  -15.20000    0.00100     50     6869  6918     290
   191   20.00000    0.00000   -0.35000    16.84000   -0.02000   -2.70000    0.00100     25     6919  6943     291
   192   16.84000   -0.02000   -2.70000    20.00000    0.00000  -15.20000    0.00100     50     6944  6993     292
   193   20.00000    0.00000   -0.35000    18.22000    1.76000   -2.70000    0.00100     25     6994  7018     293
   194   18.22000    1.76000   -2.70000    20.00000    0.00000  -15.20000    0.00100     50     7019  7068     294
   195   20.00000    0.00000   -0.35000    19.66000    2.83000   -2.70000    0.00100     25     7069  7093     295
   196   19.66000    2.83000   -2.70000    20.00000    0.00000  -15.20000    0.00100     50     7094  7143     296
   197   20.00000    0.00000   -0.35000    21.76000    1.78000   -2.70000    0.00100     25     7144  7168     297
   198   21.76000    1.78000   -2.70000    20.00000    0.00000  -15.20000    0.00100     50     7169  7218     298
   199  -20.00000   20.00000    0.35000   -21.78000   21.76000    2.70000    0.00100     25     7219  7243     299
   200  -21.78000   21.76000    2.70000   -20.00000   20.00000   15.20000    0.00100     50     7244  7293     300
   201  -20.00000   20.00000    0.35000   -20.01000   22.50000    2.70000    0.00100     25     7294  7318     301
   202  -20.01000   22.50000    2.70000   -20.00000   20.00000   15.20000    0.00100     50     7319  7368     302
   203  -20.00000   20.00000    0.35000   -17.78000   21.78000    2.70000    0.00100     25     7369  7393     303
   204  -17.78000   21.78000    2.70000   -20.00000   20.00000   15.20000    0.00100     50     7394  7443     304
   205  -20.00000   20.00000    0.35000   -17.50000   20.01000    2.70000    0.00100     25     7444  7468     305
   206  -17.50000   20.01000    2.70000   -20.00000   20.00000   15.20000    0.00100     50     7469  7518     306
   207  -20.00000   20.00000    0.35000   -17.76000   17.78000    2.70000    0.00100     25     7519  7543     307
   208  -17.76000   17.78000    2.70000   -20.00000   20.00000   15.20000    0.00100     50     7544  7593     308
   209  -20.00000   20.00000    0.35000   -19.99000   17.50000    2.70000    0.00100     25     7594  7618     309
   210  -19.99000   17.50000    2.70000   -20.00000   20.00000   15.20000    0.00100     50     7619  7668     310
   211  -20.00000   20.00000    0.35000   -21.76000   17.76000    2.70000    0.00100     25     7669  7693     311
   212  -21.76000   17.76000    2.70000   -20.00000   20.00000   15.20000    0.00100     50     7694  7743     312
   213  -20.00000   20.00000    0.35000   -22.50000   19.99000    2.70000    0.00100     25     7744  7768     313
   214  -22.50000   19.99000    2.70000   -20.00000   20.00000   15.20000    0.00100     50     7769  7818     314
   215  -20.00000   20.00000   -0.35000   -20.00000   20.00000    0.35000    0.00100      3     7819  7821     315
   216  -20.00000   20.00000   -0.35000   -21.78000   21.76000   -2.70000    0.00100     25     7822  7846     316
   217  -21.78000   21.76000   -2.70000   -20.00000   20.00000  -15.20000    0.00100     50     7847  7896     317
   218  -20.00000   20.00000   -0.35000   -20.01000   22.50000   -2.70000    0.00100     25     7897  7921     318
   219  -20.01000   22.50000   -2.70000   -20.00000   20.00000  -15.20000    0.00100     50     7922  7971     319
   220  -20.00000   20.00000   -0.35000   -17.78000   21.78000   -2.70000    0.00100     25     7972  7996     320
   221  -17.78000   21.78000   -2.70000   -20.00000   20.00000  -15.20000    0.00100     50     7997  8046     321
   222  -20.00000   20.00000   -0.35000   -17.50000   20.01000   -2.70000    0.00100     25     8047  8071     322
   223  -17.50000   20.01000   -2.70000   -20.00000   20.00000  -15.20000    0.00100     50     8072  8121     323
   224  -20.00000   20.00000   -0.35000   -17.76000   17.78000   -2.70000    0.00100     25     8122  8146     324
   225  -17.76000   17.78000   -2.70000   -20.00000   20.00000  -15.20000    0.00100     50     8147  8196     325
   226  -20.00000   20.00000   -0.35000   -19.99000   17.50000   -2.70000    0.00100     25     8197  8221     326
   227  -19.99000   17.50000   -2.70000   -20.00000   20.00000  -15.20000    0.00100     50     8222  8271     327
   228  -20.00000   20.00000   -0.35000   -21.76000   17.76000   -2.70000    0.00100     25     8272  8296     328
   229  -21.76000   17.76000   -2.70000   -20.00000   20.00000  -15.20000    0.00100     50     8297  8346     329
   230  -20.00000   20.00000   -0.35000   -22.50000   19.99000   -2.70000    0.00100     25     8347  8371     330
   231  -22.50000   19.99000   -2.70000   -20.00000   20.00000  -15.20000    0.00100     50     8372  8421     331
   232    0.00000   20.00000    0.35000    -0.01000   22.50000    2.70000    0.00100     25     8422  8446     332
   233   -0.01000   22.50000    2.70000     0.00000   20.00000   15.20000    0.00100     50     8447  8496     333
   234    0.00000   20.00000    0.35000     1.76000   21.78000    2.70000    0.00100     25     8497  8521     334
   235    1.76000   21.78000    2.70000     0.00000   20.00000   15.20000    0.00100     50     8522  8571     335
   236    0.00000   20.00000    0.35000     2.83000   19.69000    2.70000    0.00100     25     8572  8596     336
   237    2.83000   19.69000    2.70000     0.00000   20.00000   15.20000    0.00100     50     8597  8646     337
   238    0.00000   20.00000    0.35000     1.78000   18.24000    2.70000    0.00100     25     8647  8671     338
   239    1.78000   18.24000    2.70000     0.00000   20.00000   15.20000    0.00100     50     8672  8721     339
   240    0.00000   20.00000    0.35000     0.02000   16.84000    2.70000    0.00100     25     8722  8746     340
   241    0.02000   16.84000    2.70000     0.00000   20.00000   15.20000    0.00100     50     8747  8796     341
   242    0.00000   20.00000    0.35000    -1.76000   18.22000    2.70000    0.00100     25     8797  8821     342
   243   -1.76000   18.22000    2.70000     0.00000   20.00000   15.20000    0.00100     50     8822  8871     343
   244    0.00000   20.00000    0.35000    -2.83000   19.66000    2.70000    0.00100     25     8872  8896     344
   245   -2.83000   19.66000    2.70000     0.00000   20.00000   15.20000    0.00100     50     8897  8946     345
   246    0.00000   20.00000    0.35000    -1.78000   21.76000    2.70000    0.00100     25     8947  8971     346
   247   -1.78000   21.76000    2.70000     0.00000   20.00000   15.20000    0.00100     50     8972  9021     347
   248    0.00000   20.00000   -0.35000     0.00000   20.00000    0.35000    0.00100      3     9022  9024     348
   249    0.00000   20.00000   -0.35000    -0.01000   22.50000   -2.70000    0.00100     25     9025  9049     349
   250   -0.01000   22.50000   -2.70000     0.00000   20.00000  -15.20000    0.00100     50     9050  9099     350
   251    0.00000   20.00000   -0.35000     1.76000   21.78000   -2.70000    0.00100     25     9100  9124     351
   252    1.76000   21.78000   -2.70000     0.00000   20.00000  -15.20000    0.00100     50     9125  9174     352
   253    0.00000   20.00000   -0.35000     2.83000   19.69000   -2.70000    0.00100     25     9175  9199     353
   254    2.83000   19.69000   -2.70000     0.00000   20.00000  -15.20000    0.00100     50     9200  9249     354
   255    0.00000   20.00000   -0.35000     1.78000   18.24000   -2.70000    0.00100     25     9250  9274     355
   256    1.78000   18.24000   -2.70000     0.00000   20.00000  -15.20000    0.00100     50     9275  9324     356
   257    0.00000   20.00000   -0.35000     0.02000   16.84000   -2.70000    0.00100     25     9325  9349     357
   258    0.02000   16.84000   -2.70000     0.00000   20.00000  -15.20000    0.00100     50     9350  9399     358
   259    0.00000   20.00000   -0.35000    -1.76000   18.22000   -2.70000    0.00100     25     9400  9424     359
   260   -1.76000   18.22000   -2.70000     0.00000   20.00000  -15.20000    0.00100     50     9425  9474     360
   261    0.00000   20.00000   -0.35000    -2.83000   19.66000   -2.70000    0.00100     25     9475  9499     361
   262   -2.83000   19.66000   -2.70000     0.00000   20.00000  -15.20000    0.00100     50     9500  9549     362
   263    0.00000   20.00000   -0.35000    -1.78000   21.76000   -2.70000    0.00100     25     9550  9574     363
   264   -1.78000   21.76000   -2.70000     0.00000   20.00000  -15.20000    0.00100     50     9575  9624     364
   265   20.00000   20.00000    0.35000    21.76000   21.78000    2.70000    0.00100     25     9625  9649     365
   266   21.76000   21.78000    2.70000    20.00000   20.00000   15.20000    0.00100     50     9650  9699     366
   267   20.00000   20.00000    0.35000    22.50000   20.01000    2.70000    0.00100     25     9700  9724     367
   268   22.50000   20.01000    2.70000    20.00000   20.00000   15.20000    0.00100     50     9725  9774     368
   269   20.00000   20.00000    0.35000    21.78000   17.78000    2.70000    0.00100     25     9775  9799     369
   270   21.78000   17.78000    2.70000    20.00000   20.00000   15.20000    0.00100     50     9800  9849     370
   271   20.00000   20.00000    0.35000    20.01000   17.50000    2.70000    0.00100     25     9850  9874     371
   272   20.01000   17.50000    2.70000    20.00000   20.00000   15.20000    0.00100     50     9875  9924     372
   273   20.00000   20.00000    0.35000    17.78000   17.76000    2.70000    0.00100     25     9925  9949     373
   274   17.78000   17.76000    2.70000    20.00000   20.00000   15.20000    0.00100     50     9950  9999     374
   275   20.00000   20.00000    0.35000    17.50000   19.99000    2.70000    0.00100     25    10000 10024     375
   276   17.50000   19.99000    2.70000    20.00000   20.00000   15.20000    0.00100     50    10025 10074     376
   277   20.00000   20.00000    0.35000    17.76000   21.76000    2.70000    0.00100     25    10075 10099     377
   278   17.76000   21.76000    2.70000    20.00000   20.00000   15.20000    0.00100     50    10100 10149     378
   279   20.00000   20.00000    0.35000    19.99000   22.50000    2.70000    0.00100     25    10150 10174     379
   280   19.99000   22.50000    2.70000    20.00000   20.00000   15.20000    0.00100     50    10175 10224     380
   281   20.00000   20.00000   -0.35000    20.00000   20.00000    0.35000    0.00100      3    10225 10227     381
   282   20.00000   20.00000   -0.35000    21.76000   21.78000   -2.70000    0.00100     25    10228 10252     382
   283   21.76000   21.78000   -2.70000    20.00000   20.00000  -15.20000    0.00100     50    10253 10302     383
   284   20.00000   20.00000   -0.35000    22.50000   20.01000   -2.70000    0.00100     25    10303 10327     384
   285   22.50000   20.01000   -2.70000    20.00000   20.00000  -15.20000    0.00100     50    10328 10377     385
   286   20.00000   20.00000   -0.35000    21.78000   17.78000   -2.70000    0.00100     25    10378 10402     386
   287   21.78000   17.78000   -2.70000    20.00000   20.00000  -15.20000    0.00100     50    10403 10452     387
   288   20.00000   20.00000   -0.35000    20.01000   17.50000   -2.70000    0.00100     25    10453 10477     388
   289   20.01000   17.50000   -2.70000    20.00000   20.00000  -15.20000    0.00100     50    10478 10527     389
   290   20.00000   20.00000   -0.35000    17.78000   17.76000   -2.70000    0.00100     25    10528 10552     390
   291   17.78000   17.76000   -2.70000    20.00000   20.00000  -15.20000    0.00100     50    10553 10602     391
   292   20.00000   20.00000   -0.35000    17.50000   19.99000   -2.70000    0.00100     25    10603 10627     392
   293   17.50000   19.99000   -2.70000    20.00000   20.00000  -15.20000    0.00100     50    10628 10677     393
   294   20.00000   20.00000   -0.35000    17.76000   21.76000   -2.70000    0.00100     25    10678 10702     394
   295   17.76000   21.76000   -2.70000    20.00000   20.00000  -15.20000    0.00100     50    10703 10752     395
   296   20.00000   20.00000   -0.35000    19.99000   22.50000   -2.70000    0.00100     25    10753 10777     396
   297   19.99000   22.50000   -2.70000    20.00000   20.00000  -15.20000    0.00100     50    10778 10827     397

   TOTAL SEGMENTS USED=10827     NO. SEG. IN A SYMMETRIC CELL=10827     SYMMETRY FLAG=  0


         - MULTIPLE WIRE JUNCTIONS -
 JUNCTION    SEGMENTS  (- FOR END 1, + FOR END 2)
     1        -1  -76 -151 -226 -301 -376 -451 -526  603
     2        75  150  225  300  375  450  525  600
     3      -601 -604 -679 -754 -829 -904 -979-1054-1129
     4       678  753  828  903  978 1053 1128 1203
     5     -1204-1279-1354-1429-1504-1579-1654-1729 1806
     6      1278 1353 1428 1503 1578 1653 1728 1803
     7     -1804-1807-1882-1957-2032-2107-2182-2257-2332
     8      1881 1956 2031 2106 2181 2256 2331 2406
     9     -2407-2482-2557-2632-2707-2782-2857-2932 3009
    10      2481 2556 2631 2706 2781 2856 2931 3006
    11     -3007-3010-3085-3160-3235-3310-3385-3460-3535
    12      3084 3159 3234 3309 3384 3459 3534 3609
    13     -3610-3685-3760-3835-3910-3985-4060-4135 4212
    14      3684 3759 3834 3909 3984 4059 4134 4209
    15     -4210-4213-4288-4363-4438-4513-4588-4663-4738
    16      4287 4362 4437 4512 4587 4662 4737 4812
    17     -4813-4888-4963-5038-5113-5188-5263-5338 5415
    18      4887 4962 5037 5112 5187 5262 5337 5412
    19     -5413-5416-5491-5566-5641-5716-5791-5866-5941
    20      5490 5565 5640 5715 5790 5865 5940 6015
    21     -6016-6091-6166-6241-6316-6391-6466-6541 6618
    22      6090 6165 6240 6315 6390 6465 6540 6615
    23     -6616-6619-6694-6769-6844-6919-6994-7069-7144
    24      6693 6768 6843 6918 6993 7068 7143 7218
    25     -7219-7294-7369-7444-7519-7594-7669-7744 7821
    26      7293 7368 7443 7518 7593 7668 7743 7818
    27     -7819-7822-7897-7972-8047-8122-8197-8272-8347
    28      7896 7971 8046 8121 8196 8271 8346 8421
    29     -8422-8497-8572-8647-8722-8797-8872-8947 9024
    30      8496 8571 8646 8721 8796 8871 8946 9021
    31     -9022-9025-9100-9175-9250-9325-9400-9475-9550
    32      9099 9174 9249 9324 9399 9474 9549 9624
    33     -9625-9700-9775-9850-9925***************10227
    34      9699 9774 9849 9924 9999100741014910224
    35     *********************************************
    36     1030210377104521052710602106771075210827




                                 - - - - SEGMENTATION DATA - - - -

                                        COORDINATES IN METERS

                         I+ AND I- INDICATE THE SEGMENTS BEFORE AND AFTER I


  SEG.   COORDINATES OF SEG. CENTER     SEG.     ORIENTATION ANGLES    WIRE    CONNECTION DATA   TAG
  NO.       X         Y         Z       LENGTH     ALPHA     BETA      RADIUS    I-   I    I+    NO.
     1 -20.03520 -20.03560   0.39700   0.13734   43.19198-134.67630   0.00100   -76    1    2    101
     2 -20.10560 -20.10680   0.49100   0.13734   43.19198-134.67630   0.00100     1    2    3    101
     3 -20.17600 -20.17800   0.58500   0.13734   43.19198-134.67630   0.00100     2    3    4    101
     4 -20.24640 -20.24920   0.67900   0.13734   43.19198-134.67630   0.00100     3    4    5    101
     5 -20.31680 -20.32040   0.77300   0.13734   43.19198-134.67630   0.00100     4    5    6    101
     6 -20.38720 -20.39160   0.86700   0.13734   43.19198-134.67630   0.00100     5    6    7    101
     7 -20.45760 -20.46280   0.96100   0.13734   43.19198-134.67630   0.00100     6    7    8    101
     8 -20.52800 -20.53400   1.05500   0.13734   43.19198-134.67630   0.00100     7    8    9    101
     9 -20.59840 -20.60520   1.14900   0.13734   43.19198-134.67630   0.00100     8    9   10    101
    10 -20.66880 -20.67640   1.24300   0.13734   43.19198-134.67630   0.00100     9   10   11    101
    11 -20.73920 -20.74760   1.33700   0.13734   43.19198-134.67630   0.00100    10   11   12    101
    12 -20.80960 -20.81880   1.43100   0.13734   43.19198-134.67630   0.00100    11   12   13    101
    13 -20.88000 -20.89000   1.52500   0.13734   43.19198-134.67630   0.00100    12   13   14    101
    14 -20.95040 -20.96120   1.61900   0.13734   43.19198-134.67630   0.00100    13   14   15    101
    15 -21.02080 -21.03240   1.71300   0.13734   43.19198-134.67630   0.00100    14   15   16    101
    16 -21.09120 -21.10360   1.80700   0.13734   43.19198-134.67630   0.00100    15   16   17    101
    17 -21.16160 -21.17480   1.90100   0.13734   43.19198-134.67630   0.00100    16   17   18    101
    18 -21.23200 -21.24600   1.99500   0.13734   43.19198-134.67630   0.00100    17   18   19    101
    19 -21.30240 -21.31720   2.08900   0.13734   43.19198-134.67630   0.00100    18   19   20    101
    20 -21.37280 -21.38840   2.18300   0.13734   43.19198-134.67630   0.00100    19   20   21    101
    21 -21.44320 -21.45960   2.27700   0.13734   43.19198-134.67630   0.00100    20   21   22    101
    22 -21.51360 -21.53080   2.37100   0.13734   43.19198-134.67630   0.00100    21   22   23    101
    23 -21.58400 -21.60200   2.46500   0.13734   43.19198-134.67630   0.00100    22   23   24    101
    24 -21.65440 -21.67320   2.55900   0.13734   43.19198-134.67630   0.00100    23   24   25    101
    25 -21.72480 -21.74440   2.65300   0.13734   43.19198-134.67630   0.00100    24   25   26    101
    26 -21.74240 -21.76220   2.82500   0.25496   78.67597  45.32370   0.00100    25   26   27    102
    27 -21.70720 -21.72660   3.07500   0.25496   78.67597  45.32370   0.00100    26   27   28    102
    28 -21.67200 -21.69100   3.32500   0.25496   78.67597  45.32370   0.00100    27   28   29    102
    29 -21.63680 -21.65540   3.57500   0.25496   78.67597  45.32370   0.00100    28   29   30    102
    30 -21.60160 -21.61980   3.82500   0.25496   78.67597  45.32370   0.00100    29   30   31    102
    31 -21.56640 -21.58420   4.07500   0.25496   78.67597  45.32370   0.00100    30   31   32    102
    32 -21.53120 -21.54860   4.32500   0.25496   78.67597  45.32370   0.00100    31   32   33    102
    33 -21.49600 -21.51300   4.57500   0.25496   78.67597  45.32370   0.00100    32   33   34    102
    34 -21.46080 -21.47740   4.82500   0.25496   78.67597  45.32370   0.00100    33   34   35    102
    35 -21.42560 -21.44180   5.07500   0.25496   78.67597  45.32370   0.00100    34   35   36    102
    36 -21.39040 -21.40620   5.32500   0.25496   78.67597  45.32370   0.00100    35   36   37    102
    37 -21.35520 -21.37060   5.57500   0.25496   78.67597  45.32370   0.00100    36   37   38    102
    38 -21.32000 -21.33500   5.82500   0.25496   78.67597  45.32370   0.00100    37   38   39    102
    39 -21.28480 -21.29940   6.07500   0.25496   78.67597  45.32370   0.00100    38   39   40    102
    40 -21.24960 -21.26380   6.32500   0.25496   78.67597  45.32370   0.00100    39   40   41    102
    41 -21.21440 -21.22820   6.57500   0.25496   78.67597  45.32370   0.00100    40   41   42    102
    42 -21.17920 -21.19260   6.82500   0.25496   78.67597  45.32370   0.00100    41   42   43    102
    43 -21.14400 -21.15700   7.07500   0.25496   78.67597  45.32370   0.00100    42   43   44    102
    44 -21.10880 -21.12140   7.32500   0.25496   78.67597  45.32370   0.00100    43   44   45    102
    45 -21.07360 -21.08580   7.57500   0.25496   78.67597  45.32370   0.00100    44   45   46    102
    46 -21.03840 -21.05020   7.82500   0.25496   78.67597  45.32370   0.00100    45   46   47    102
    47 -21.00320 -21.01460   8.07500   0.25496   78.67597  45.32370   0.00100    46   47   48    102
    48 -20.96800 -20.97900   8.32500   0.25496   78.67597  45.32370   0.00100    47   48   49    102
    49 -20.93280 -20.94340   8.57500   0.25496   78.67597  45.32370   0.00100    48   49   50    102
    50 -20.89760 -20.90780   8.82500   0.25496   78.67597  45.32370   0.00100    49   50   51    102
    51 -20.86240 -20.87220   9.07500   0.25496   78.67597  45.32370   0.00100    50   51   52    102
    52 -20.82720 -20.83660   9.32500   0.25496   78.67597  45.32370   0.00100    51   52   53    102
    53 -20.79200 -20.80100   9.57500   0.25496   78.67597  45.32370   0.00100    52   53   54    102
    54 -20.75680 -20.76540   9.82500   0.25496   78.67597  45.32370   0.00100    53   54   55    102
    55 -20.72160 -20.72980  10.07500   0.25496   78.67597  45.32370   0.00100    54   55   56    102
    56 -20.68640 -20.69420  10.32500   0.25496   78.67597  45.32370   0.00100    55   56   57    102
    57 -20.65120 -20.65860  10.57500   0.25496   78.67597  45.32370   0.00100    56   57   58    102
    58 -20.61600 -20.62300  10.82500   0.25496   78.67597  45.32370   0.00100    57   58   59    102
    59 -20.58080 -20.58740  11.07500   0.25496   78.67597  45.32370   0.00100    58   59   60    102
    60 -20.54560 -20.55180  11.32500   0.25496   78.67597  45.32370   0.00100    59   60   61    102
    61 -20.51040 -20.51620  11.57500   0.25496   78.67597  45.32370   0.00100    60   61   62    102
    62 -20.47520 -20.48060  11.82500   0.25496   78.67597  45.32370   0.00100    61   62   63    102
    63 -20.44000 -20.44500  12.07500   0.25496   78.67597  45.32370   0.00100    62   63   64    102
    64 -20.40480 -20.40940  12.32500   0.25496   78.67597  45.32370   0.00100    63   64   65    102
    65 -20.36960 -20.37380  12.57500   0.25496   78.67597  45.32370   0.00100    64   65   66    102
    66 -20.33440 -20.33820  12.82500   0.25496   78.67597  45.32370   0.00100    65   66   67    102
    67 -20.29920 -20.30260  13.07500   0.25496   78.67597  45.32370   0.00100    66   67   68    102
    68 -20.26400 -20.26700  13.32500   0.25496   78.67597  45.32370   0.00100    67   68   69    102
    69 -20.22880 -20.23140  13.57500   0.25496   78.67597  45.32370   0.00100    68   69   70    102
    70 -20.19360 -20.19580  13.82500   0.25496   78.67597  45.32370   0.00100    69   70   71    102
    71 -20.15840 -20.16020  14.07500   0.25496   78.67597  45.32370   0.00100    70   71   72    102
    72 -20.12320 -20.12460  14.32500   0.25496   78.67597  45.32370   0.00100    71   72   73    102
    73 -20.08800 -20.08900  14.57500   0.25496   78.67597  45.32370   0.00100    72   73   74    102
    74 -20.05280 -20.05340  14.82500   0.25496   78.67597  45.32370   0.00100    73   74   75    102
    75 -20.01760 -20.01780  15.07500   0.25496   78.67597  45.32370   0.00100    74   75 -150    102
    76 -20.05000 -20.00020   0.39700   0.13724   43.22830-179.77082   0.00100  -151   76   77    103
    77 -20.15000 -20.00060   0.49100   0.13724   43.22830-179.77082   0.00100    76   77   78    103
    78 -20.25000 -20.00100   0.58500   0.13724   43.22830-179.77082   0.00100    77   78   79    103
    79 -20.35000 -20.00140   0.67900   0.13724   43.22830-179.77082   0.00100    78   79   80    103
    80 -20.45000 -20.00180   0.77300   0.13724   43.22830-179.77082   0.00100    79   80   81    103
    81 -20.55000 -20.00220   0.86700   0.13724   43.22830-179.77082   0.00100    80   81   82    103
    82 -20.65000 -20.00260   0.96100   0.13724   43.22830-179.77082   0.00100    81   82   83    103
    83 -20.75000 -20.00300   1.05500   0.13724   43.22830-179.77082   0.00100    82   83   84    103
    84 -20.85000 -20.00340   1.14900   0.13724   43.22830-179.77082   0.00100    83   84   85    103
    85 -20.95000 -20.00380   1.24300   0.13724   43.22830-179.77082   0.00100    84   85   86    103
    86 -21.05000 -20.00420   1.33700   0.13724   43.22830-179.77082   0.00100    85   86   87    103
    87 -21.15000 -20.00460   1.43100   0.13724   43.22830-179.77082   0.00100    86   87   88    103
    88 -21.25000 -20.00500   1.52500   0.13724   43.22830-179.77082   0.00100    87   88   89    103
    89 -21.35000 -20.00540   1.61900   0.13724   43.22830-179.77082   0.00100    88   89   90    103
    90 -21.45000 -20.00580   1.71300   0.13724   43.22830-179.77082   0.00100    89   90   91    103
    91 -21.55000 -20.00620   1.80700   0.13724   43.22830-179.77082   0.00100    90   91   92    103
    92 -21.65000 -20.00660   1.90100   0.13724   43.22830-179.77082   0.00100    91   92   93    103
    93 -21.75000 -20.00700   1.99500   0.13724   43.22830-179.77082   0.00100    92   93   94    103
    94 -21.85000 -20.00740   2.08900   0.13724   43.22830-179.77082   0.00100    93   94   95    103
    95 -21.95000 -20.00780   2.18300   0.13724   43.22830-179.77082   0.00100    94   95   96    103
    96 -22.05000 -20.00820   2.27700   0.13724   43.22830-179.77082   0.00100    95   96   97    103
    97 -22.15000 -20.00860   2.37100   0.13724   43.22830-179.77082   0.00100    96   97   98    103
    98 -22.25000 -20.00900   2.46500   0.13724   43.22830-179.77082   0.00100    97   98   99    103
    99 -22.35000 -20.00940   2.55900   0.13724   43.22830-179.77082   0.00100    98   99  100    103
   100 -22.45000 -20.00980   2.65300   0.13724   43.22830-179.77082   0.00100    99  100  101    103
   101 -22.47500 -20.00990   2.82500   0.25495   78.68998   0.22918   0.00100   100  101  102    104
   102 -22.42500 -20.00970   3.07500   0.25495   78.68998   0.22918   0.00100   101  102  103    104
   103 -22.37500 -20.00950   3.32500   0.25495   78.68998   0.22918   0.00100   102  103  104    104
   104 -22.32500 -20.00930   3.57500   0.25495   78.68998   0.22918   0.00100   103  104  105    104
   105 -22.27500 -20.00910   3.82500   0.25495   78.68998   0.22918   0.00100   104  105  106    104
   106 -22.22500 -20.00890   4.07500   0.25495   78.68998   0.22918   0.00100   105  106  107    104
   107 -22.17500 -20.00870   4.32500   0.25495   78.68998   0.22918   0.00100   106  107  108    104
   108 -22.12500 -20.00850   4.57500   0.25495   78.68998   0.22918   0.00100   107  108  109    104
   109 -22.07500 -20.00830   4.82500   0.25495   78.68998   0.22918   0.00100   108  109  110    104
   110 -22.02500 -20.00810   5.07500   0.25495   78.68998   0.22918   0.00100   109  110  111    104
   111 -21.97500 -20.00790   5.32500   0.25495   78.68998   0.22918   0.00100   110  111  112    104
   112 -21.92500 -20.00770   5.57500   0.25495   78.68998   0.22918   0.00100   111  112  113    104
   113 -21.87500 -20.00750   5.82500   0.25495   78.68998   0.22918   0.00100   112  113  114    104
   114 -21.82500 -20.00730   6.07500   0.25495   78.68998   0.22918   0.00100   113  114  115    104
   115 -21.77500 -20.00710   6.32500   0.25495   78.68998   0.22918   0.00100   114  115  116    104
   116 -21.72500 -20.00690   6.57500   0.25495   78.68998   0.22918   0.00100   115  116  117    104
   117 -21.67500 -20.00670   6.82500   0.25495   78.68998   0.22918   0.00100   116  117  118    104
   118 -21.62500 -20.00650   7.07500   0.25495   78.68998   0.22918   0.00100   117  118  119    104
   119 -21.57500 -20.00630   7.32500   0.25495   78.68998   0.22918   0.00100   118  119  120    104
   120 -21.52500 -20.00610   7.57500   0.25495   78.68998   0.22918   0.00100   119  120  121    104
   121 -21.47500 -20.00590   7.82500   0.25495   78.68998   0.22918   0.00100   120  121  122    104
   122 -21.42500 -20.00570   8.07500   0.25495   78.68998   0.22918   0.00100   121  122  123    104
   123 -21.37500 -20.00550   8.32500   0.25495   78.68998   0.22918   0.00100   122  123  124    104
   124 -21.32500 -20.00530   8.57500   0.25495   78.68998   0.22918   0.00100   123  124  125    104
   125 -21.27500 -20.00510   8.82500   0.25495   78.68998   0.22918   0.00100   124  125  126    104
   126 -21.22500 -20.00490   9.07500   0.25495   78.68998   0.22918   0.00100   125  126  127    104
   127 -21.17500 -20.00470   9.32500   0.25495   78.68998   0.22918   0.00100   126  127  128    104
   128 -21.12500 -20.00450   9.57500   0.25495   78.68998   0.22918   0.00100   127  128  129    104
   129 -21.07500 -20.00430   9.82500   0.25495   78.68998   0.22918   0.00100   128  129  130    104
   130 -21.02500 -20.00410  10.07500   0.25495   78.68998   0.22918   0.00100   129  130  131    104
   131 -20.97500 -20.00390  10.32500   0.25495   78.68998   0.22918   0.00100   130  131  132    104
   132 -20.92500 -20.00370  10.57500   0.25495   78.68998   0.22918   0.00100   131  132  133    104
   133 -20.87500 -20.00350  10.82500   0.25495   78.68998   0.22918   0.00100   132  133  134    104
   134 -20.82500 -20.00330  11.07500   0.25495   78.68998   0.22918   0.00100   133  134  135    104
   135 -20.77500 -20.00310  11.32500   0.25495   78.68998   0.22918   0.00100   134  135  136    104
   136 -20.72500 -20.00290  11.57500   0.25495   78.68998   0.22918   0.00100   135  136  137    104
   137 -20.67500 -20.00270  11.82500   0.25495   78.68998   0.22918   0.00100   136  137  138    104
   138 -20.62500 -20.00250  12.07500   0.25495   78.68998   0.22918   0.00100   137  138  139    104
   139 -20.57500 -20.00230  12.32500   0.25495   78.68998   0.22918   0.00100   138  139  140    104
   140 -20.52500 -20.00210  12.57500   0.25495   78.68998   0.22918   0.00100   139  140  141    104
   141 -20.47500 -20.00190  12.82500   0.25495   78.68998   0.22918   0.00100   140  141  142    104
   142 -20.42500 -20.00170  13.07500   0.25495   78.68998   0.22918   0.00100   141  142  143    104
   143 -20.37500 -20.00150  13.32500   0.25495   78.68998   0.22918   0.00100   142  143  144    104
   144 -20.32500 -20.00130  13.57500   0.25495   78.68998   0.22918   0.00100   143  144  145    104
   145 -20.27500 -20.00110  13.82500   0.25495   78.68998   0.22918   0.00100   144  145  146    104
   146 -20.22500 -20.00090  14.07500   0.25495   78.68998   0.22918   0.00100   145  146  147    104
   147 -20.17500 -20.00070  14.32500   0.25495   78.68998   0.22918   0.00100   146  147  148    104
   148 -20.12500 -20.00050  14.57500   0.25495   78.68998   0.22918   0.00100   147  148  149    104
   149 -20.07500 -20.00030  14.82500   0.25495   78.68998   0.22918   0.00100   148  149  150    104
   150 -20.02500 -20.00010  15.07500   0.25495   78.68998   0.22918   0.00100   149  150 -225    104
   151 -20.03560 -19.95560   0.39700   0.14762   39.55224 128.72270   0.00100  -226  151  152    105
   152 -20.10680 -19.86680   0.49100   0.14762   39.55224 128.72270   0.00100   151  152  153    105
   153 -20.17800 -19.77800   0.58500   0.14762   39.55224 128.72270   0.00100   152  153  154    105
   154 -20.24920 -19.68920   0.67900   0.14762   39.55224 128.72270   0.00100   153  154  155    105
   155 -20.32040 -19.60040   0.77300   0.14762   39.55224 128.72270   0.00100   154  155  156    105
   156 -20.39160 -19.51160   0.86700   0.14762   39.55224 128.72270   0.00100   155  156  157    105
   157 -20.46280 -19.42280   0.96100   0.14762   39.55224 128.72270   0.00100   156  157  158    105
   158 -20.53400 -19.33400   1.05500   0.14762   39.55224 128.72270   0.00100   157  158  159    105
   159 -20.60520 -19.24520   1.14900   0.14762   39.55224 128.72270   0.00100   158  159  160    105
   160 -20.67640 -19.15640   1.24300   0.14762   39.55224 128.72270   0.00100   159  160  161    105
   161 -20.74760 -19.06760   1.33700   0.14762   39.55224 128.72270   0.00100   160  161  162    105
   162 -20.81880 -18.97880   1.43100   0.14762   39.55224 128.72270   0.00100   161  162  163    105
   163 -20.89000 -18.89000   1.52500   0.14762   39.55224 128.72270   0.00100   162  163  164    105
   164 -20.96120 -18.80120   1.61900   0.14762   39.55224 128.72270   0.00100   163  164  165    105
   165 -21.03240 -18.71240   1.71300   0.14762   39.55224 128.72270   0.00100   164  165  166    105
   166 -21.10360 -18.62360   1.80700   0.14762   39.55224 128.72270   0.00100   165  166  167    105
   167 -21.17480 -18.53480   1.90100   0.14762   39.55224 128.72270   0.00100   166  167  168    105
   168 -21.24600 -18.44600   1.99500   0.14762   39.55224 128.72270   0.00100   167  168  169    105
   169 -21.31720 -18.35720   2.08900   0.14762   39.55224 128.72270   0.00100   168  169  170    105
   170 -21.38840 -18.26840   2.18300   0.14762   39.55224 128.72270   0.00100   169  170  171    105
   171 -21.45960 -18.17960   2.27700   0.14762   39.55224 128.72270   0.00100   170  171  172    105
   172 -21.53080 -18.09080   2.37100   0.14762   39.55224 128.72270   0.00100   171  172  173    105
   173 -21.60200 -18.00200   2.46500   0.14762   39.55224 128.72270   0.00100   172  173  174    105
   174 -21.67320 -17.91320   2.55900   0.14762   39.55224 128.72270   0.00100   173  174  175    105
   175 -21.74440 -17.82440   2.65300   0.14762   39.55224 128.72270   0.00100   174  175  176    105
   176 -21.76220 -17.80220   2.82500   0.25640   77.17578 -51.27730   0.00100   175  176  177    106
   177 -21.72660 -17.84660   3.07500   0.25640   77.17578 -51.27730   0.00100   176  177  178    106
   178 -21.69100 -17.89100   3.32500   0.25640   77.17578 -51.27730   0.00100   177  178  179    106
   179 -21.65540 -17.93540   3.57500   0.25640   77.17578 -51.27730   0.00100   178  179  180    106
   180 -21.61980 -17.97980   3.82500   0.25640   77.17578 -51.27730   0.00100   179  180  181    106
   181 -21.58420 -18.02420   4.07500   0.25640   77.17578 -51.27730   0.00100   180  181  182    106
   182 -21.54860 -18.06860   4.32500   0.25640   77.17578 -51.27730   0.00100   181  182  183    106
   183 -21.51300 -18.11300   4.57500   0.25640   77.17578 -51.27730   0.00100   182  183  184    106
   184 -21.47740 -18.15740   4.82500   0.25640   77.17578 -51.27730   0.00100   183  184  185    106
   185 -21.44180 -18.20180   5.07500   0.25640   77.17578 -51.27730   0.00100   184  185  186    106
   186 -21.40620 -18.24620   5.32500   0.25640   77.17578 -51.27730   0.00100   185  186  187    106
   187 -21.37060 -18.29060   5.57500   0.25640   77.17578 -51.27730   0.00100   186  187  188    106
   188 -21.33500 -18.33500   5.82500   0.25640   77.17578 -51.27730   0.00100   187  188  189    106
   189 -21.29940 -18.37940   6.07500   0.25640   77.17578 -51.27730   0.00100   188  189  190    106
   190 -21.26380 -18.42380   6.32500   0.25640   77.17578 -51.27730   0.00100   189  190  191    106
   191 -21.22820 -18.46820   6.57500   0.25640   77.17578 -51.27730   0.00100   190  191  192    106
   192 -21.19260 -18.51260   6.82500   0.25640   77.17578 -51.27730   0.00100   191  192  193    106
   193 -21.15700 -18.55700   7.07500   0.25640   77.17578 -51.27730   0.00100   192  193  194    106
   194 -21.12140 -18.60140   7.32500   0.25640   77.17578 -51.27730   0.00100   193  194  195    106
   195 -21.08580 -18.64580   7.57500   0.25640   77.17578 -51.27730   0.00100   194  195  196    106
   196 -21.05020 -18.69020   7.82500   0.25640   77.17578 -51.27730   0.00100   195  196  197    106
   197 -21.01460 -18.73460   8.07500   0.25640   77.17578 -51.27730   0.00100   196  197  198    106
   198 -20.97900 -18.77900   8.32500   0.25640   77.17578 -51.27730   0.00100   197  198  199    106
   199 -20.94340 -18.82340   8.57500   0.25640   77.17578 -51.27730   0.00100   198  199  200    106
   200 -20.90780 -18.86780   8.82500   0.25640   77.17578 -51.27730   0.00100   199  200  201    106
   201 -20.87220 -18.91220   9.07500   0.25640   77.17578 -51.27730   0.00100   200  201  202    106
   202 -20.83660 -18.95660   9.32500   0.25640   77.17578 -51.27730   0.00100   201  202  203    106
   203 -20.80100 -19.00100   9.57500   0.25640   77.17578 -51.27730   0.00100   202  203  204    106
   204 -20.76540 -19.04540   9.82500   0.25640   77.17578 -51.27730   0.00100   203  204  205    106
   205 -20.72980 -19.08980  10.07500   0.25640   77.17578 -51.27730   0.00100   204  205  206    106
   206 -20.69420 -19.13420  10.32500   0.25640   77.17578 -51.27730   0.00100   205  206  207    106
   207 -20.65860 -19.17860  10.57500   0.25640   77.17578 -51.27730   0.00100   206  207  208    106
   208 -20.62300 -19.22300  10.82500   0.25640   77.17578 -51.27730   0.00100   207  208  209    106
   209 -20.58740 -19.26740  11.07500   0.25640   77.17578 -51.27730   0.00100   208  209  210    106
   210 -20.55180 -19.31180  11.32500   0.25640   77.17578 -51.27730   0.00100   209  210  211    106
   211 -20.51620 -19.35620  11.57500   0.25640   77.17578 -51.27730   0.00100   210  211  212    106
   212 -20.48060 -19.40060  11.82500   0.25640   77.17578 -51.27730   0.00100   211  212  213    106
   213 -20.44500 -19.44500  12.07500   0.25640   77.17578 -51.27730   0.00100   212  213  214    106
   214 -20.40940 -19.48940  12.32500   0.25640   77.17578 -51.27730   0.00100   213  214  215    106
   215 -20.37380 -19.53380  12.57500   0.25640   77.17578 -51.27730   0.00100   214  215  216    106
   216 -20.33820 -19.57820  12.82500   0.25640   77.17578 -51.27730   0.00100   215  216  217    106
   217 -20.30260 -19.62260  13.07500   0.25640   77.17578 -51.27730   0.00100   216  217  218    106
   218 -20.26700 -19.66700  13.32500   0.25640   77.17578 -51.27730   0.00100   217  218  219    106
   219 -20.23140 -19.71140  13.57500   0.25640   77.17578 -51.27730   0.00100   218  219  220    106
   220 -20.19580 -19.75580  13.82500   0.25640   77.17578 -51.27730   0.00100   219  220  221    106
   221 -20.16020 -19.80020  14.07500   0.25640   77.17578 -51.27730   0.00100   220  221  222    106
   222 -20.12460 -19.84460  14.32500   0.25640   77.17578 -51.27730   0.00100   221  222  223    106
   223 -20.08900 -19.88900  14.57500   0.25640   77.17578 -51.27730   0.00100   222  223  224    106
   224 -20.05340 -19.93340  14.82500   0.25640   77.17578 -51.27730   0.00100   223  224  225    106
   225 -20.01780 -19.97780  15.07500   0.25640   77.17578 -51.27730   0.00100   224  225 -300    106
   226 -20.00020 -19.95000   0.39700   0.13724   43.22830  90.22918   0.00100  -301  226  227    107
   227 -20.00060 -19.85000   0.49100   0.13724   43.22830  90.22918   0.00100   226  227  228    107
   228 -20.00100 -19.75000   0.58500   0.13724   43.22830  90.22918   0.00100   227  228  229    107
   229 -20.00140 -19.65000   0.67900   0.13724   43.22830  90.22918   0.00100   228  229  230    107
   230 -20.00180 -19.55000   0.77300   0.13724   43.22830  90.22918   0.00100   229  230  231    107
   231 -20.00220 -19.45000   0.86700   0.13724   43.22830  90.22918   0.00100   230  231  232    107
   232 -20.00260 -19.35000   0.96100   0.13724   43.22830  90.22918   0.00100   231  232  233    107
   233 -20.00300 -19.25000   1.05500   0.13724   43.22830  90.22918   0.00100   232  233  234    107
   234 -20.00340 -19.15000   1.14900   0.13724   43.22830  90.22918   0.00100   233  234  235    107
   235 -20.00380 -19.05000   1.24300   0.13724   43.22830  90.22918   0.00100   234  235  236    107
   236 -20.00420 -18.95000   1.33700   0.13724   43.22830  90.22918   0.00100   235  236  237    107
   237 -20.00460 -18.85000   1.43100   0.13724   43.22830  90.22918   0.00100   236  237  238    107
   238 -20.00500 -18.75000   1.52500   0.13724   43.22830  90.22918   0.00100   237  238  239    107
   239 -20.00540 -18.65000   1.61900   0.13724   43.22830  90.22918   0.00100   238  239  240    107
   240 -20.00580 -18.55000   1.71300   0.13724   43.22830  90.22918   0.00100   239  240  241    107
   241 -20.00620 -18.45000   1.80700   0.13724   43.22830  90.22918   0.00100   240  241  242    107
   242 -20.00660 -18.35000   1.90100   0.13724   43.22830  90.22918   0.00100   241  242  243    107
   243 -20.00700 -18.25000   1.99500   0.13724   43.22830  90.22918   0.00100   242  243  244    107
   244 -20.00740 -18.15000   2.08900   0.13724   43.22830  90.22918   0.00100   243  244  245    107
   245 -20.00780 -18.05000   2.18300   0.13724   43.22830  90.22918   0.00100   244  245  246    107
   246 -20.00820 -17.95000   2.27700   0.13724   43.22830  90.22918   0.00100   245  246  247    107
   247 -20.00860 -17.85000   2.37100   0.13724   43.22830  90.22918   0.00100   246  247  248    107
   248 -20.00900 -17.75000   2.46500   0.13724   43.22830  90.22918   0.00100   247  248  249    107
   249 -20.00940 -17.65000   2.55900   0.13724   43.22830  90.22918   0.00100   248  249  250    107
   250 -20.00980 -17.55000   2.65300   0.13724   43.22830  90.22918   0.00100   249  250  251    107
   251 -20.00990 -17.52500   2.82500   0.25495   78.68998 -89.77082   0.00100   250  251  252    108
   252 -20.00970 -17.57500   3.07500   0.25495   78.68998 -89.77082   0.00100   251  252  253    108
   253 -20.00950 -17.62500   3.32500   0.25495   78.68998 -89.77082   0.00100   252  253  254    108
   254 -20.00930 -17.67500   3.57500   0.25495   78.68998 -89.77082   0.00100   253  254  255    108
   255 -20.00910 -17.72500   3.82500   0.25495   78.68998 -89.77082   0.00100   254  255  256    108
   256 -20.00890 -17.77500   4.07500   0.25495   78.68998 -89.77082   0.00100   255  256  257    108
   257 -20.00870 -17.82500   4.32500   0.25495   78.68998 -89.77082   0.00100   256  257  258    108
   258 -20.00850 -17.87500   4.57500   0.25495   78.68998 -89.77082   0.00100   257  258  259    108
   259 -20.00830 -17.92500   4.82500   0.25495   78.68998 -89.77082   0.00100   258  259  260    108
   260 -20.00810 -17.97500   5.07500   0.25495   78.68998 -89.77082   0.00100   259  260  261    108
   261 -20.00790 -18.02500   5.32500   0.25495   78.68998 -89.77082   0.00100   260  261  262    108
   262 -20.00770 -18.07500   5.57500   0.25495   78.68998 -89.77082   0.00100   261  262  263    108
   263 -20.00750 -18.12500   5.82500   0.25495   78.68998 -89.77082   0.00100   262  263  264    108
   264 -20.00730 -18.17500   6.07500   0.25495   78.68998 -89.77082   0.00100   263  264  265    108
   265 -20.00710 -18.22500   6.32500   0.25495   78.68998 -89.77082   0.00100   264  265  266    108
   266 -20.00690 -18.27500   6.57500   0.25495   78.68998 -89.77082   0.00100   265  266  267    108
   267 -20.00670 -18.32500   6.82500   0.25495   78.68998 -89.77082   0.00100   266  267  268    108
   268 -20.00650 -18.37500   7.07500   0.25495   78.68998 -89.77082   0.00100   267  268  269    108
   269 -20.00630 -18.42500   7.32500   0.25495   78.68998 -89.77082   0.00100   268  269  270    108
   270 -20.00610 -18.47500   7.57500   0.25495   78.68998 -89.77082   0.00100   269  270  271    108
   271 -20.00590 -18.52500   7.82500   0.25495   78.68998 -89.77082   0.00100   270  271  272    108
   272 -20.00570 -18.57500   8.07500   0.25495   78.68998 -89.77082   0.00100   271  272  273    108
   273 -20.00550 -18.62500   8.32500   0.25495   78.68998 -89.77082   0.00100   272  273  274    108
   274 -20.00530 -18.67500   8.57500   0.25495   78.68998 -89.77082   0.00100   273  274  275    108
   275 -20.00510 -18.72500   8.82500   0.25495   78.68998 -89.77082   0.00100   274  275  276    108
   276 -20.00490 -18.77500   9.07500   0.25495   78.68998 -89.77082   0.00100   275  276  277    108
   277 -20.00470 -18.82500   9.32500   0.25495   78.68998 -89.77082   0.00100   276  277  278    108
   278 -20.00450 -18.87500   9.57500   0.25495   78.68998 -89.77082   0.00100   277  278  279    108
   279 -20.00430 -18.92500   9.82500   0.25495   78.68998 -89.77082   0.00100   278  279  280    108
   280 -20.00410 -18.97500  10.07500   0.25495   78.68998 -89.77082   0.00100   279  280  281    108
   281 -20.00390 -19.02500  10.32500   0.25495   78.68998 -89.77082   0.00100   280  281  282    108
   282 -20.00370 -19.07500  10.57500   0.25495   78.68998 -89.77082   0.00100   281  282  283    108
   283 -20.00350 -19.12500  10.82500   0.25495   78.68998 -89.77082   0.00100   282  283  284    108
   284 -20.00330 -19.17500  11.07500   0.25495   78.68998 -89.77082   0.00100   283  284  285    108
   285 -20.00310 -19.22500  11.32500   0.25495   78.68998 -89.77082   0.00100   284  285  286    108
   286 -20.00290 -19.27500  11.57500   0.25495   78.68998 -89.77082   0.00100   285  286  287    108
   287 -20.00270 -19.32500  11.82500   0.25495   78.68998 -89.77082   0.00100   286  287  288    108
   288 -20.00250 -19.37500  12.07500   0.25495   78.68998 -89.77082   0.00100   287  288  289    108
   289 -20.00230 -19.42500  12.32500   0.25495   78.68998 -89.77082   0.00100   288  289  290    108
   290 -20.00210 -19.47500  12.57500   0.25495   78.68998 -89.77082   0.00100   289  290  291    108
   291 -20.00190 -19.52500  12.82500   0.25495   78.68998 -89.77082   0.00100   290  291  292    108
   292 -20.00170 -19.57500  13.07500   0.25495   78.68998 -89.77082   0.00100   291  292  293    108
   293 -20.00150 -19.62500  13.32500   0.25495   78.68998 -89.77082   0.00100   292  293  294    108
   294 -20.00130 -19.67500  13.57500   0.25495   78.68998 -89.77082   0.00100   293  294  295    108
   295 -20.00110 -19.72500  13.82500   0.25495   78.68998 -89.77082   0.00100   294  295  296    108
   296 -20.00090 -19.77500  14.07500   0.25495   78.68998 -89.77082   0.00100   295  296  297    108
   297 -20.00070 -19.82500  14.32500   0.25495   78.68998 -89.77082   0.00100   296  297  298    108
   298 -20.00050 -19.87500  14.57500   0.25495   78.68998 -89.77082   0.00100   297  298  299    108
   299 -20.00030 -19.92500  14.82500   0.25495   78.68998 -89.77082   0.00100   298  299  300    108
   300 -20.00010 -19.97500  15.07500   0.25495   78.68998 -89.77082   0.00100   299  300 -375    108
   301 -19.95560 -19.95520   0.39700   0.15732   36.69163  45.25693   0.00100  -376  301  302    109
   302 -19.86680 -19.86560   0.49100   0.15732   36.69163  45.25693   0.00100   301  302  303    109
   303 -19.77800 -19.77600   0.58500   0.15732   36.69163  45.25693   0.00100   302  303  304    109
   304 -19.68920 -19.68640   0.67900   0.15732   36.69163  45.25693   0.00100   303  304  305    109
   305 -19.60040 -19.59680   0.77300   0.15732   36.69163  45.25693   0.00100   304  305  306    109
   306 -19.51160 -19.50720   0.86700   0.15732   36.69163  45.25693   0.00100   305  306  307    109
   307 -19.42280 -19.41760   0.96100   0.15732   36.69163  45.25693   0.00100   306  307  308    109
   308 -19.33400 -19.32800   1.05500   0.15732   36.69163  45.25693   0.00100   307  308  309    109
   309 -19.24520 -19.23840   1.14900   0.15732   36.69163  45.25693   0.00100   308  309  310    109
   310 -19.15640 -19.14880   1.24300   0.15732   36.69163  45.25693   0.00100   309  310  311    109
   311 -19.06760 -19.05920   1.33700   0.15732   36.69163  45.25693   0.00100   310  311  312    109
   312 -18.97880 -18.96960   1.43100   0.15732   36.69163  45.25693   0.00100   311  312  313    109
   313 -18.89000 -18.88000   1.52500   0.15732   36.69163  45.25693   0.00100   312  313  314    109
   314 -18.80120 -18.79040   1.61900   0.15732   36.69163  45.25693   0.00100   313  314  315    109
   315 -18.71240 -18.70080   1.71300   0.15732   36.69163  45.25693   0.00100   314  315  316    109
   316 -18.62360 -18.61120   1.80700   0.15732   36.69163  45.25693   0.00100   315  316  317    109
   317 -18.53480 -18.52160   1.90100   0.15732   36.69163  45.25693   0.00100   316  317  318    109
   318 -18.44600 -18.43200   1.99500   0.15732   36.69163  45.25693   0.00100   317  318  319    109
   319 -18.35720 -18.34240   2.08900   0.15732   36.69163  45.25693   0.00100   318  319  320    109
   320 -18.26840 -18.25280   2.18300   0.15732   36.69163  45.25693   0.00100   319  320  321    109
   321 -18.17960 -18.16320   2.27700   0.15732   36.69163  45.25693   0.00100   320  321  322    109
   322 -18.09080 -18.07360   2.37100   0.15732   36.69163  45.25693   0.00100   321  322  323    109
   323 -18.00200 -17.98400   2.46500   0.15732   36.69163  45.25693   0.00100   322  323  324    109
   324 -17.91320 -17.89440   2.55900   0.15732   36.69163  45.25693   0.00100   323  324  325    109
   325 -17.82440 -17.80480   2.65300   0.15732   36.69163  45.25693   0.00100   324  325  326    109
   326 -17.80220 -17.78240   2.82500   0.25783   75.83989-134.74307   0.00100   325  326  327    110
   327 -17.84660 -17.82720   3.07500   0.25783   75.83989-134.74307   0.00100   326  327  328    110
   328 -17.89100 -17.87200   3.32500   0.25783   75.83989-134.74307   0.00100   327  328  329    110
   329 -17.93540 -17.91680   3.57500   0.25783   75.83989-134.74307   0.00100   328  329  330    110
   330 -17.97980 -17.96160   3.82500   0.25783   75.83989-134.74307   0.00100   329  330  331    110
   331 -18.02420 -18.00640   4.07500   0.25783   75.83989-134.74307   0.00100   330  331  332    110
   332 -18.06860 -18.05120   4.32500   0.25783   75.83989-134.74307   0.00100   331  332  333    110
   333 -18.11300 -18.09600   4.57500   0.25783   75.83989-134.74307   0.00100   332  333  334    110
   334 -18.15740 -18.14080   4.82500   0.25783   75.83989-134.74307   0.00100   333  334  335    110
   335 -18.20180 -18.18560   5.07500   0.25783   75.83989-134.74307   0.00100   334  335  336    110
   336 -18.24620 -18.23040   5.32500   0.25783   75.83989-134.74307   0.00100   335  336  337    110
   337 -18.29060 -18.27520   5.57500   0.25783   75.83989-134.74307   0.00100   336  337  338    110
   338 -18.33500 -18.32000   5.82500   0.25783   75.83989-134.74307   0.00100   337  338  339    110
   339 -18.37940 -18.36480   6.07500   0.25783   75.83989-134.74307   0.00100   338  339  340    110
   340 -18.42380 -18.40960   6.32500   0.25783   75.83989-134.74307   0.00100   339  340  341    110
   341 -18.46820 -18.45440   6.57500   0.25783   75.83989-134.74307   0.00100   340  341  342    110
   342 -18.51260 -18.49920   6.82500   0.25783   75.83989-134.74307   0.00100   341  342  343    110
   343 -18.55700 -18.54400   7.07500   0.25783   75.83989-134.74307   0.00100   342  343  344    110
   344 -18.60140 -18.58880   7.32500   0.25783   75.83989-134.74307   0.00100   343  344  345    110
   345 -18.64580 -18.63360   7.57500   0.25783   75.83989-134.74307   0.00100   344  345  346    110
   346 -18.69020 -18.67840   7.82500   0.25783   75.83989-134.74307   0.00100   345  346  347    110
   347 -18.73460 -18.72320   8.07500   0.25783   75.83989-134.74307   0.00100   346  347  348    110
   348 -18.77900 -18.76800   8.32500   0.25783   75.83989-134.74307   0.00100   347  348  349    110
   349 -18.82340 -18.81280   8.57500   0.25783   75.83989-134.74307   0.00100   348  349  350    110
   350 -18.86780 -18.85760   8.82500   0.25783   75.83989-134.74307   0.00100   349  350  351    110
   351 -18.91220 -18.90240   9.07500   0.25783   75.83989-134.74307   0.00100   350  351  352    110
   352 -18.95660 -18.94720   9.32500   0.25783   75.83989-134.74307   0.00100   351  352  353    110
   353 -19.00100 -18.99200   9.57500   0.25783   75.83989-134.74307   0.00100   352  353  354    110
   354 -19.04540 -19.03680   9.82500   0.25783   75.83989-134.74307   0.00100   353  354  355    110
   355 -19.08980 -19.08160  10.07500   0.25783   75.83989-134.74307   0.00100   354  355  356    110
   356 -19.13420 -19.12640  10.32500   0.25783   75.83989-134.74307   0.00100   355  356  357    110
   357 -19.17860 -19.17120  10.57500   0.25783   75.83989-134.74307   0.00100   356  357  358    110
   358 -19.22300 -19.21600  10.82500   0.25783   75.83989-134.74307   0.00100   357  358  359    110
   359 -19.26740 -19.26080  11.07500   0.25783   75.83989-134.74307   0.00100   358  359  360    110
   360 -19.31180 -19.30560  11.32500   0.25783   75.83989-134.74307   0.00100   359  360  361    110
   361 -19.35620 -19.35040  11.57500   0.25783   75.83989-134.74307   0.00100   360  361  362    110
   362 -19.40060 -19.39520  11.82500   0.25783   75.83989-134.74307   0.00100   361  362  363    110
   363 -19.44500 -19.44000  12.07500   0.25783   75.83989-134.74307   0.00100   362  363  364    110
   364 -19.48940 -19.48480  12.32500   0.25783   75.83989-134.74307   0.00100   363  364  365    110
   365 -19.53380 -19.52960  12.57500   0.25783   75.83989-134.74307   0.00100   364  365  366    110
   366 -19.57820 -19.57440  12.82500   0.25783   75.83989-134.74307   0.00100   365  366  367    110
   367 -19.62260 -19.61920  13.07500   0.25783   75.83989-134.74307   0.00100   366  367  368    110
   368 -19.66700 -19.66400  13.32500   0.25783   75.83989-134.74307   0.00100   367  368  369    110
   369 -19.71140 -19.70880  13.57500   0.25783   75.83989-134.74307   0.00100   368  369  370    110
   370 -19.75580 -19.75360  13.82500   0.25783   75.83989-134.74307   0.00100   369  370  371    110
   371 -19.80020 -19.79840  14.07500   0.25783   75.83989-134.74307   0.00100   370  371  372    110
   372 -19.84460 -19.84320  14.32500   0.25783   75.83989-134.74307   0.00100   371  372  373    110
   373 -19.88900 -19.88800  14.57500   0.25783   75.83989-134.74307   0.00100   372  373  374    110
   374 -19.93340 -19.93280  14.82500   0.25783   75.83989-134.74307   0.00100   373  374  375    110
   375 -19.97780 -19.97760  15.07500   0.25783   75.83989-134.74307   0.00100   374  375 -450    110
   376 -19.95000 -19.99980   0.39700   0.13724   43.22830   0.22918   0.00100  -451  376  377    111
   377 -19.85000 -19.99940   0.49100   0.13724   43.22830   0.22918   0.00100   376  377  378    111
   378 -19.75000 -19.99900   0.58500   0.13724   43.22830   0.22918   0.00100   377  378  379    111
   379 -19.65000 -19.99860   0.67900   0.13724   43.22830   0.22918   0.00100   378  379  380    111
   380 -19.55000 -19.99820   0.77300   0.13724   43.22830   0.22918   0.00100   379  380  381    111
   381 -19.45000 -19.99780   0.86700   0.13724   43.22830   0.22918   0.00100   380  381  382    111
   382 -19.35000 -19.99740   0.96100   0.13724   43.22830   0.22918   0.00100   381  382  383    111
   383 -19.25000 -19.99700   1.05500   0.13724   43.22830   0.22918   0.00100   382  383  384    111
   384 -19.15000 -19.99660   1.14900   0.13724   43.22830   0.22918   0.00100   383  384  385    111
   385 -19.05000 -19.99620   1.24300   0.13724   43.22830   0.22918   0.00100   384  385  386    111
   386 -18.95000 -19.99580   1.33700   0.13724   43.22830   0.22918   0.00100   385  386  387    111
   387 -18.85000 -19.99540   1.43100   0.13724   43.22830   0.22918   0.00100   386  387  388    111
   388 -18.75000 -19.99500   1.52500   0.13724   43.22830   0.22918   0.00100   387  388  389    111
   389 -18.65000 -19.99460   1.61900   0.13724   43.22830   0.22918   0.00100   388  389  390    111
   390 -18.55000 -19.99420   1.71300   0.13724   43.22830   0.22918   0.00100   389  390  391    111
   391 -18.45000 -19.99380   1.80700   0.13724   43.22830   0.22918   0.00100   390  391  392    111
   392 -18.35000 -19.99340   1.90100   0.13724   43.22830   0.22918   0.00100   391  392  393    111
   393 -18.25000 -19.99300   1.99500   0.13724   43.22830   0.22918   0.00100   392  393  394    111
   394 -18.15000 -19.99260   2.08900   0.13724   43.22830   0.22918   0.00100   393  394  395    111
   395 -18.05000 -19.99220   2.18300   0.13724   43.22830   0.22918   0.00100   394  395  396    111
   396 -17.95000 -19.99180   2.27700   0.13724   43.22830   0.22918   0.00100   395  396  397    111
   397 -17.85000 -19.99140   2.37100   0.13724   43.22830   0.22918   0.00100   396  397  398    111
   398 -17.75000 -19.99100   2.46500   0.13724   43.22830   0.22918   0.00100   397  398  399    111
   399 -17.65000 -19.99060   2.55900   0.13724   43.22830   0.22918   0.00100   398  399  400    111
   400 -17.55000 -19.99020   2.65300   0.13724   43.22830   0.22918   0.00100   399  400  401    111
   401 -17.52500 -19.99010   2.82500   0.25495   78.68998-179.77082   0.00100   400  401  402    112
   402 -17.57500 -19.99030   3.07500   0.25495   78.68998-179.77082   0.00100   401  402  403    112
   403 -17.62500 -19.99050   3.32500   0.25495   78.68998-179.77082   0.00100   402  403  404    112
   404 -17.67500 -19.99070   3.57500   0.25495   78.68998-179.77082   0.00100   403  404  405    112
   405 -17.72500 -19.99090   3.82500   0.25495   78.68998-179.77082   0.00100   404  405  406    112
   406 -17.77500 -19.99110   4.07500   0.25495   78.68998-179.77082   0.00100   405  406  407    112
   407 -17.82500 -19.99130   4.32500   0.25495   78.68998-179.77082   0.00100   406  407  408    112
   408 -17.87500 -19.99150   4.57500   0.25495   78.68998-179.77082   0.00100   407  408  409    112
   409 -17.92500 -19.99170   4.82500   0.25495   78.68998-179.77082   0.00100   408  409  410    112
   410 -17.97500 -19.99190   5.07500   0.25495   78.68998-179.77082   0.00100   409  410  411    112
   411 -18.02500 -19.99210   5.32500   0.25495   78.68998-179.77082   0.00100   410  411  412    112
   412 -18.07500 -19.99230   5.57500   0.25495   78.68998-179.77082   0.00100   411  412  413    112
   413 -18.12500 -19.99250   5.82500   0.25495   78.68998-179.77082   0.00100   412  413  414    112
   414 -18.17500 -19.99270   6.07500   0.25495   78.68998-179.77082   0.00100   413  414  415    112
   415 -18.22500 -19.99290   6.32500   0.25495   78.68998-179.77082   0.00100   414  415  416    112
   416 -18.27500 -19.99310   6.57500   0.25495   78.68998-179.77082   0.00100   415  416  417    112
   417 -18.32500 -19.99330   6.82500   0.25495   78.68998-179.77082   0.00100   416  417  418    112
   418 -18.37500 -19.99350   7.07500   0.25495   78.68998-179.77082   0.00100   417  418  419    112
[...]
   40.00   315.00      -6.57  -42.06   -6.57    0.00747     0.86  RIGHT     1.06908E-03  -121.11    1.79842E-05  -147.48
   45.00   315.00      -5.99  -41.55   -5.99    0.00734     0.86  RIGHT     1.14319E-03  -124.62    1.90677E-05  -150.72
   50.00   315.00      -5.56  -41.03   -5.56    0.00719     0.87  RIGHT     1.20082E-03  -128.45    2.02282E-05  -153.74
   55.00   315.00      -5.26  -40.53   -5.25    0.00698     0.90  RIGHT     1.24407E-03  -132.61    2.14263E-05  -156.53
   60.00   315.00      -5.04  -40.06   -5.04    0.00666     0.94  RIGHT     1.27566E-03  -137.04    2.26197E-05  -159.11
   65.00   315.00      -4.89  -39.63   -4.88    0.00622     0.99  RIGHT     1.29837E-03  -141.64    2.37688E-05  -161.51
   70.00   315.00      -4.78  -39.25   -4.78    0.00568     1.03  RIGHT     1.31438E-03  -146.26    2.48403E-05  -163.77
   75.00   315.00      -4.71  -38.92   -4.71    0.00510     1.08  RIGHT     1.32482E-03  -150.73    2.58102E-05  -165.91
   80.00   315.00      -4.68  -38.63   -4.68    0.00454     1.12  RIGHT     1.32962E-03  -154.89    2.66651E-05  -167.97
   85.00   315.00      -4.69  -38.40   -4.69    0.00407     1.16  RIGHT     1.32770E-03  -158.58    2.74029E-05  -169.95
   90.00   315.00      -4.76  -38.20   -4.76    0.00374     1.20  RIGHT     1.31743E-03  -161.70    2.80309E-05  -171.84
    0.00   320.00     -24.72  -40.39  -24.61    0.08545    -8.02  RIGHT     1.32255E-04    -4.58    2.17928E-05  -152.65
    5.00   320.00     -22.60  -40.24  -22.53    0.12960     1.19  RIGHT     1.68812E-04   -70.66    2.21571E-05  -151.71
   10.00   320.00     -17.31  -40.06  -17.29    0.06185     2.21  RIGHT     3.10419E-04   -92.95    2.26197E-05  -151.17
   15.00   320.00     -13.77  -39.85  -13.76    0.03826     1.81  RIGHT     4.66753E-04  -100.50    2.31789E-05  -150.96
   20.00   320.00     -11.29  -39.61  -11.28    0.02793     1.51  RIGHT     6.21207E-04  -104.25    2.38387E-05  -151.01
   25.00   320.00      -9.45  -39.33   -9.44    0.02244     1.31  RIGHT     7.67915E-04  -106.75    2.46055E-05  -151.23
   30.00   320.00      -8.04  -39.03   -8.04    0.01913     1.19  RIGHT     9.03062E-04  -108.86    2.54837E-05  -151.57
   35.00   320.00      -6.95  -38.70   -6.95    0.01697     1.12  RIGHT     1.02379E-03  -110.95    2.64731E-05  -151.97
   40.00   320.00      -6.11  -38.35   -6.10    0.01544     1.09  RIGHT     1.12819E-03  -113.21    2.75657E-05  -152.41
   45.00   320.00      -5.46  -37.98   -5.46    0.01427     1.08  RIGHT     1.21540E-03  -115.74    2.87456E-05  -152.87
   50.00   320.00      -4.97  -37.61   -4.97    0.01329     1.10  RIGHT     1.28575E-03  -118.60    2.99887E-05  -153.35
   55.00   320.00      -4.61  -37.25   -4.61    0.01239     1.13  RIGHT     1.34054E-03  -121.76    3.12650E-05  -153.86
   60.00   320.00      -4.34  -36.90   -4.34    0.01149     1.18  RIGHT     1.38184E-03  -125.20    3.25416E-05  -154.43
   65.00   320.00      -4.16  -36.58   -4.15    0.01057     1.23  RIGHT     1.41190E-03  -128.84    3.37861E-05  -155.07
   70.00   320.00      -4.03  -36.28   -4.03    0.00962     1.28  RIGHT     1.43273E-03  -132.56    3.49696E-05  -155.79
   75.00   320.00      -3.95  -36.01   -3.95    0.00868     1.34  RIGHT     1.44562E-03  -136.23    3.60703E-05  -156.61
   80.00   320.00      -3.92  -35.77   -3.92    0.00781     1.39  RIGHT     1.45096E-03  -139.72    3.70749E-05  -157.53
   85.00   320.00      -3.94  -35.56   -3.93    0.00707     1.45  RIGHT     1.44827E-03  -142.90    3.79794E-05  -158.56
   90.00   320.00      -4.01  -35.38   -4.00    0.00653     1.50  RIGHT     1.43652E-03  -145.68    3.87885E-05  -159.69
    0.00   325.00     -24.86  -37.03  -24.61    0.08545   -13.02  RIGHT     1.30143E-04    -5.02    3.20778E-05  -163.61
    5.00   325.00     -22.58  -36.92  -22.43    0.19181    -0.14  RIGHT     1.69259E-04   -70.54    3.24682E-05  -161.24
   10.00   325.00     -17.21  -36.79  -17.16    0.09684     2.30  RIGHT     3.14338E-04   -91.43    3.29562E-05  -159.13
   15.00   325.00     -13.61  -36.64  -13.59    0.06061     2.06  RIGHT     4.75683E-04   -97.79    3.35300E-05  -157.22
   20.00   325.00     -11.07  -36.48  -11.06    0.04393     1.76  RIGHT     6.37092E-04  -100.44    3.41860E-05  -155.48
   25.00   325.00      -9.17  -36.29   -9.16    0.03468     1.56  RIGHT     7.92698E-04  -101.91    3.49267E-05  -153.88
   30.00   325.00      -7.70  -36.09   -7.70    0.02890     1.42  RIGHT     9.38498E-04  -103.02    3.57570E-05  -152.39
   35.00   325.00      -6.55  -35.86   -6.55    0.02496     1.34  RIGHT     1.07130E-03  -104.14    3.66809E-05  -150.99
   40.00   325.00      -5.65  -35.63   -5.65    0.02211     1.30  RIGHT     1.18871E-03  -105.46    3.76980E-05  -149.69
   45.00   325.00      -4.95  -35.38   -4.94    0.01991     1.29  RIGHT     1.28928E-03  -107.05    3.88011E-05  -148.50
   50.00   325.00      -4.40  -35.12   -4.40    0.01811     1.31  RIGHT     1.37265E-03  -108.97    3.99759E-05  -147.44
   55.00   325.00      -3.99  -34.85   -3.99    0.01655     1.34  RIGHT     1.43944E-03  -111.21    4.12011E-05  -146.54
   60.00   325.00      -3.68  -34.60   -3.68    0.01512     1.38  RIGHT     1.49108E-03  -113.73    4.24508E-05  -145.83
   65.00   325.00      -3.46  -34.34   -3.46    0.01377     1.43  RIGHT     1.52937E-03  -116.49    4.36973E-05  -145.32
   70.00   325.00      -3.31  -34.11   -3.31    0.01248     1.49  RIGHT     1.55613E-03  -119.38    4.49145E-05  -145.03
   75.00   325.00      -3.22  -33.88   -3.22    0.01127     1.55  RIGHT     1.57271E-03  -122.33    4.60808E-05  -144.98
   80.00   325.00      -3.18  -33.68   -3.18    0.01019     1.61  RIGHT     1.57982E-03  -125.21    4.71814E-05  -145.17
   85.00   325.00      -3.19  -33.49   -3.19    0.00927     1.67  RIGHT     1.57744E-03  -127.93    4.82096E-05  -145.61
   90.00   325.00      -3.26  -33.32   -3.26    0.00859     1.73  RIGHT     1.56501E-03  -130.40    4.91662E-05  -146.28
    0.00   330.00     -25.07  -34.54  -24.61    0.08545   -18.02  RIGHT     1.27049E-04    -5.48    4.27168E-05  -169.17
    5.00   330.00     -22.57  -34.46  -22.30    0.25358    -1.30  RIGHT     1.69407E-04   -70.74    4.31275E-05  -165.51
   10.00   330.00     -17.10  -34.36  -17.01    0.13001     2.48  RIGHT     3.18342E-04   -90.11    4.36145E-05  -162.04
   15.00   330.00     -13.44  -34.25  -13.40    0.08137     2.34  RIGHT     4.84871E-04   -95.22    4.41594E-05  -158.73
   20.00   330.00     -10.85  -34.14  -10.83    0.05851     2.04  RIGHT     6.53373E-04   -96.77    4.47558E-05  -155.56
   25.00   330.00      -8.90  -34.01   -8.88    0.04560     1.81  RIGHT     8.18004E-04   -97.20    4.54069E-05  -152.52
   30.00   330.00      -7.38  -33.87   -7.37    0.03740     1.66  RIGHT     9.74570E-04   -97.33    4.61227E-05  -149.61
   35.00   330.00      -6.17  -33.73   -6.16    0.03175     1.57  RIGHT     1.11953E-03   -97.51    4.69150E-05  -146.82
   40.00   330.00      -5.21  -33.57   -5.21    0.02761     1.52  RIGHT     1.25002E-03   -97.91    4.77932E-05  -144.18
   45.00   330.00      -4.46  -33.39   -4.45    0.02441     1.50  RIGHT     1.36404E-03   -98.60    4.87611E-05  -141.71
   50.00   330.00      -3.86  -33.21   -3.86    0.02182     1.50  RIGHT     1.46057E-03   -99.63    4.98144E-05  -139.45
   55.00   330.00      -3.40  -33.01   -3.40    0.01964     1.53  RIGHT     1.53964E-03  -101.00    5.09407E-05  -137.43
   60.00   330.00      -3.06  -32.81   -3.05    0.01771     1.56  RIGHT     1.60210E-03  -102.68    5.21209E-05  -135.70
   65.00   330.00      -2.81  -32.61   -2.80    0.01598     1.61  RIGHT     1.64935E-03  -104.64    5.33316E-05  -134.28
   70.00   330.00      -2.63  -32.42   -2.63    0.01440     1.66  RIGHT     1.68297E-03  -106.79    5.45488E-05  -133.19
   75.00   330.00      -2.52  -32.23   -2.52    0.01296     1.72  RIGHT     1.70433E-03  -109.08    5.57510E-05  -132.45
   80.00   330.00      -2.47  -32.05   -2.47    0.01171     1.78  RIGHT     1.71434E-03  -111.41    5.69215E-05  -132.08
   85.00   330.00      -2.48  -31.88   -2.47    0.01066     1.84  RIGHT     1.71329E-03  -113.71    5.80501E-05  -132.08
   90.00   330.00      -2.54  -31.72   -2.53    0.00988     1.91  RIGHT     1.70095E-03  -115.91    5.91335E-05  -132.45
    0.00   335.00     -25.36  -32.62  -24.61    0.08545   -23.02  RIGHT     1.22997E-04    -5.97    5.32725E-05  -172.52
    5.00   335.00     -22.58  -32.55  -22.16    0.31478    -2.23  RIGHT     1.69323E-04   -71.27    5.37015E-05  -167.62
   10.00   335.00     -16.98  -32.48  -16.86    0.16105     2.74  RIGHT     3.22455E-04   -88.99    5.41756E-05  -162.87
   15.00   335.00     -13.27  -32.40  -13.22    0.10040     2.66  RIGHT     4.94285E-04   -92.83    5.46724E-05  -158.28
   20.00   335.00     -10.63  -32.32  -10.60    0.07161     2.33  RIGHT     6.69942E-04   -93.27    5.51848E-05  -153.82
   25.00   335.00      -8.63  -32.23   -8.61    0.05521     2.08  RIGHT     8.43629E-04   -92.68    5.57194E-05  -149.50
   30.00   335.00      -7.06  -32.14   -7.04    0.04470     1.90  RIGHT     1.01095E-03   -91.84    5.62930E-05  -145.33
   35.00   335.00      -5.80  -32.05   -5.79    0.03742     1.79  RIGHT     1.16803E-03   -91.10    5.69269E-05  -141.32
   40.00   335.00      -4.80  -31.94   -4.79    0.03206     1.72  RIGHT     1.31151E-03   -90.61    5.76415E-05  -137.50
   45.00   335.00      -3.99  -31.82   -3.99    0.02792     1.69  RIGHT     1.43888E-03   -90.44    5.84516E-05  -133.91
   50.00   335.00      -3.35  -31.68   -3.35    0.02460     1.68  RIGHT     1.54855E-03   -90.64    5.93633E-05  -130.60
   55.00   335.00      -2.86  -31.54   -2.85    0.02183     1.70  RIGHT     1.63998E-03   -91.20    6.03725E-05  -127.61
   60.00   335.00      -2.48  -31.38   -2.47    0.01946     1.73  RIGHT     1.71354E-03   -92.11    6.14665E-05  -124.99
   65.00   335.00      -2.19  -31.22   -2.19    0.01737     1.77  RIGHT     1.77024E-03   -93.33    6.26260E-05  -122.77
   70.00   335.00      -1.99  -31.05   -1.99    0.01552     1.81  RIGHT     1.81144E-03   -94.82    6.38286E-05  -120.99
   75.00   335.00      -1.86  -30.89   -1.86    0.01389     1.86  RIGHT     1.83846E-03   -96.52    6.50523E-05  -119.67
   80.00   335.00      -1.80  -30.73   -1.79    0.01249     1.92  RIGHT     1.85228E-03   -98.37    6.62780E-05  -118.82
   85.00   335.00      -1.79  -30.57   -1.79    0.01134     1.98  RIGHT     1.85341E-03  -100.30    6.74919E-05  -118.47
   90.00   335.00      -1.85  -30.42   -1.84    0.01048     2.05  RIGHT     1.84181E-03  -102.26    6.86861E-05  -118.61
    0.00   340.00     -25.71  -31.09  -24.61    0.08545   -28.02  RIGHT     1.18018E-04    -6.49    6.35447E-05  -174.76
    5.00   340.00     -22.59  -31.03  -22.01    0.37516    -2.87  RIGHT     1.69089E-04   -72.13    6.39893E-05  -168.67
   10.00   340.00     -16.87  -30.97  -16.70    0.18968     3.10  RIGHT     3.26699E-04   -88.07    6.44429E-05  -162.72
   15.00   340.00     -13.11  -30.91  -13.03    0.11758     3.00  RIGHT     5.03889E-04   -90.60    6.48805E-05  -156.90
   20.00   340.00     -10.42  -30.86  -10.38    0.08323     2.63  RIGHT     6.86688E-04   -89.94    6.52964E-05  -151.24
   25.00   340.00      -8.37  -30.80   -8.34    0.06355     2.34  RIGHT     8.69366E-04   -88.35    6.57020E-05  -145.73
   30.00   340.00      -6.75  -30.75   -6.73    0.05089     2.14  RIGHT     1.04733E-03   -86.57    6.61220E-05  -140.40
   35.00   340.00      -5.45  -30.69   -5.44    0.04208     2.01  RIGHT     1.21633E-03   -84.94    6.65881E-05  -135.26
   40.00   340.00      -4.40  -30.61   -4.39    0.03559     1.92  RIGHT     1.37259E-03   -83.60    6.71318E-05  -130.36
   45.00   340.00      -3.56  -30.53   -3.55    0.03059     1.87  RIGHT     1.51307E-03   -82.62    6.77787E-05  -125.75
   50.00   340.00      -2.88  -30.43   -2.87    0.02660     1.85  RIGHT     1.63567E-03   -82.03    6.85445E-05  -121.48
   55.00   340.00      -2.35  -30.32   -2.34    0.02330     1.86  RIGHT     1.73937E-03   -81.84    6.94331E-05  -117.60
   60.00   340.00      -1.93  -30.20   -1.93    0.02052     1.87  RIGHT     1.82407E-03   -82.04    7.04373E-05  -114.17
   65.00   340.00      -1.62  -30.06   -1.62    0.01812     1.90  RIGHT     1.89047E-03   -82.60    7.15411E-05  -111.24
   70.00   340.00      -1.40  -29.92   -1.39    0.01603     1.94  RIGHT     1.93969E-03   -83.49    7.27235E-05  -108.83
   75.00   340.00      -1.25  -29.77   -1.24    0.01422     1.99  RIGHT     1.97295E-03   -84.67    7.39613E-05  -106.99
   80.00   340.00      -1.17  -29.62   -1.16    0.01269     2.04  RIGHT     1.99126E-03   -86.09    7.52330E-05  -105.74
   85.00   340.00      -1.15  -29.48   -1.15    0.01144     2.10  RIGHT     1.99519E-03   -87.70    7.65208E-05  -105.08
   90.00   340.00      -1.20  -29.33   -1.19    0.01051     2.16  RIGHT     1.98483E-03   -89.45    7.78119E-05  -105.02
    0.00   345.00     -26.16  -29.84  -24.61    0.08545   -33.02  RIGHT     1.12152E-04    -7.06    7.34040E-05  -176.40
    5.00   345.00     -22.61  -29.78  -21.84    0.43425    -3.13  RIGHT     1.68799E-04   -73.33    7.38611E-05  -169.16
   10.00   345.00     -16.75  -29.73  -16.54    0.21562     3.56  RIGHT     3.31098E-04   -87.35    7.42885E-05  -162.05
   15.00   345.00     -12.94  -29.69  -12.85    0.13286     3.38  RIGHT     5.13643E-04   -88.57    7.46606E-05  -155.08
   20.00   345.00     -10.21  -29.65  -10.16    0.09338     2.94  RIGHT     7.03494E-04   -86.82    7.49740E-05  -148.28
   25.00   345.00      -8.12  -29.62   -8.09    0.07069     2.61  RIGHT     8.95004E-04   -84.24    7.52465E-05  -141.65
   30.00   345.00      -6.46  -29.59   -6.44    0.05605     2.37  RIGHT     1.08337E-03   -81.56    7.55114E-05  -135.23
   35.00   345.00      -5.12  -29.56   -5.10    0.04585     2.21  RIGHT     1.26401E-03   -79.08    7.58104E-05  -129.04
   40.00   345.00      -4.03  -29.52   -4.02    0.03833     2.11  RIGHT     1.43270E-03   -76.93    7.61858E-05  -123.14
   45.00   345.00      -3.15  -29.46   -3.14    0.03256     2.05  RIGHT     1.58593E-03   -75.18    7.66733E-05  -117.58
   50.00   345.00      -2.44  -29.39   -2.43    0.02796     2.01  RIGHT     1.72113E-03   -73.85    7.72972E-05  -112.42
   55.00   345.00      -1.87  -29.30   -1.86    0.02420     2.00  RIGHT     1.83682E-03   -72.96    7.80683E-05  -107.72
   60.00   345.00      -1.43  -29.20   -1.42    0.02105     2.01  RIGHT     1.93253E-03   -72.51    7.89842E-05  -103.55
   65.00   345.00      -1.09  -29.09   -1.09    0.01837     2.02  RIGHT     2.00864E-03   -72.47    8.00319E-05   -99.96
   70.00   345.00      -0.85  -28.96   -0.84    0.01607     2.05  RIGHT     2.06606E-03   -72.82    8.11909E-05   -96.99
   75.00   345.00      -0.68  -28.83   -0.68    0.01410     2.09  RIGHT     2.10587E-03   -73.53    8.24374E-05   -94.68
   80.00   345.00      -0.59  -28.69   -0.58    0.01245     2.14  RIGHT     2.12904E-03   -74.57    8.37473E-05   -93.05
   85.00   345.00      -0.56  -28.55   -0.55    0.01111     2.19  RIGHT     2.13618E-03   -75.90    8.50987E-05   -92.12
   90.00   345.00      -0.60  -28.42   -0.59    0.01011     2.25  RIGHT     2.12738E-03   -77.48    8.64738E-05   -91.91
    0.00   350.00     -26.69  -28.80  -24.61    0.08545   -38.02  RIGHT     1.05445E-04    -7.71    8.27502E-05  -177.65
    5.00   350.00     -22.62  -28.75  -21.67    0.49126    -2.90  RIGHT     1.68556E-04   -74.86    8.32162E-05  -169.32
   10.00   350.00     -16.63  -28.71  -16.37    0.23861     4.10  RIGHT     3.35672E-04   -86.84    8.36133E-05  -161.11
   15.00   350.00     -12.77  -28.68  -12.66    0.14619     3.76  RIGHT     5.23501E-04   -86.73    8.39164E-05  -153.06
   20.00   350.00     -10.00  -28.65   -9.94    0.10209     3.25  RIGHT     7.20237E-04   -83.91    8.41264E-05  -145.18
   25.00   350.00      -7.87  -28.64   -7.84    0.07669     2.86  RIGHT     9.20329E-04   -80.39    8.42676E-05  -137.50
   30.00   350.00      -6.18  -28.63   -6.15    0.06028     2.60  RIGHT     1.11878E-03   -76.84    8.43820E-05  -130.05
   35.00   350.00      -4.80  -28.61   -4.79    0.04883     2.41  RIGHT     1.31066E-03   -73.54    8.45210E-05  -122.88
   40.00   350.00      -3.68  -28.59   -3.67    0.04041     2.29  RIGHT     1.49134E-03   -70.62    8.47364E-05  -116.05
   45.00   350.00      -2.77  -28.56   -2.76    0.03395     2.21  RIGHT     1.65686E-03   -68.14    8.50727E-05  -109.60
   50.00   350.00      -2.03  -28.51   -2.02    0.02883     2.16  RIGHT     1.80422E-03   -66.13    8.55616E-05  -103.63
   55.00   350.00      -1.44  -28.44   -1.43    0.02466     2.13  RIGHT     1.93153E-03   -64.60    8.62197E-05   -98.18
   60.00   350.00      -0.97  -28.36   -0.96    0.02119     2.12  RIGHT     2.03798E-03   -63.54    8.70487E-05   -93.34
   65.00   350.00      -0.61  -28.26   -0.60    0.01827     2.13  RIGHT     2.12366E-03   -62.95    8.80382E-05   -89.14
   70.00   350.00      -0.35  -28.15   -0.34    0.01579     2.15  RIGHT     2.18924E-03   -62.82    8.91690E-05   -85.66
   75.00   350.00      -0.16  -28.03   -0.16    0.01368     2.18  RIGHT     2.23570E-03   -63.12    9.04165E-05   -82.92
   80.00   350.00      -0.06  -27.90   -0.05    0.01192     2.22  RIGHT     2.26390E-03   -63.82    9.17547E-05   -80.95
   85.00   350.00      -0.02  -27.77   -0.01    0.01051     2.27  RIGHT     2.27442E-03   -64.89    9.31582E-05   -79.78
   90.00   350.00      -0.04  -27.63   -0.04    0.00944     2.33  RIGHT     2.26733E-03   -66.32    9.46045E-05   -79.42
    0.00   355.00     -27.33  -27.92  -24.61    0.08545   -43.02  RIGHT     9.79507E-05    -8.45    9.14982E-05  -178.65
    5.00   355.00     -22.62  -27.88  -21.49    0.54489    -2.01  RIGHT     1.68467E-04   -76.71    9.19692E-05  -169.29
   10.00   355.00     -16.51  -27.85  -16.20    0.25846     4.71  RIGHT     3.40436E-04   -86.52    9.23330E-05  -160.05
   15.00   355.00     -12.61  -27.82  -12.48    0.15757     4.16  RIGHT     5.33409E-04   -85.10    9.25667E-05  -150.98
   20.00   355.00      -9.81  -27.81   -9.74    0.10943     3.55  RIGHT     7.36788E-04   -81.24    9.26759E-05  -142.09
   25.00   355.00      -7.64  -27.81   -7.60    0.08165     3.11  RIGHT     9.45127E-04   -76.82    9.26918E-05  -133.43
   30.00   355.00      -5.91  -27.81   -5.89    0.06367     2.81  RIGHT     1.15325E-03   -72.44    9.26647E-05  -125.03
   35.00   355.00      -4.51  -27.82   -4.49    0.05114     2.60  RIGHT     1.35589E-03   -68.37    9.26544E-05  -116.95
   40.00   355.00      -3.36  -27.81   -3.34    0.04192     2.45  RIGHT     1.54804E-03   -64.72    9.27206E-05  -109.25
   45.00   355.00      -2.42  -27.79   -2.40    0.03487     2.35  RIGHT     1.72534E-03   -61.56    9.29150E-05  -101.99
   50.00   355.00      -1.65  -27.76   -1.64    0.02930     2.28  RIGHT     1.88438E-03   -58.90    9.32750E-05   -95.27
   55.00   355.00      -1.03  -27.71   -1.02    0.02479     2.24  RIGHT     2.02290E-03   -56.77    9.38222E-05   -89.13
   60.00   355.00      -0.55  -27.64   -0.54    0.02106     2.23  RIGHT     2.13976E-03   -55.16    9.45622E-05   -83.67
   65.00   355.00      -0.17  -27.55   -0.16    0.01793     2.22  RIGHT     2.23477E-03   -54.07    9.54872E-05   -78.93
   70.00   355.00       0.11  -27.46    0.12    0.01530     2.23  RIGHT     2.30841E-03   -53.50    9.65798E-05   -74.98
   75.00   355.00       0.31  -27.34    0.32    0.01308     2.25  RIGHT     2.36146E-03   -53.42    9.78162E-05   -71.85
   80.00   355.00       0.43  -27.23    0.44    0.01123     2.28  RIGHT     2.39471E-03   -53.82    9.91691E-05   -69.58
   85.00   355.00       0.48  -27.10    0.49    0.00975     2.33  RIGHT     2.40863E-03   -54.67    1.00611E-04   -68.19
   90.00   355.00       0.46  -26.97    0.47    0.00863     2.38  RIGHT     2.40327E-03   -55.97    1.02114E-04   -67.70






 ***** DATA CARD NO. 14   EN   0     0     0     0  0.00000E+00  0.00000E+00  0.00000E+00  0.00000E+00  0.00000E+00  0.00000E+00

 RUN TIME =  1829.672
