1



                                 *********************************************

                                    NUMERICAL ELECTROMAGNETICS CODE (NEC-2D)

                                 *********************************************




                                     - - - - COMMENTS - - - -


                                                                                                     
                                                                                                     




                                 - - - STRUCTURE SPECIFICATION - - -

                                     COORDINATES MUST BE INPUT IN
                                     METERS OR BE SCALED TO METERS
                                     BEFORE STRUCTURE INPUT IS ENDED


  WIRE                                                                               NO. OF    FIRST  LAST     TAG
  NO.        X1         Y1         Z1          X2         Y2         Z2      RADIUS   SEG.     SEG.   SEG.     NO.
     1   -7.50000   -7.50000    0.35000    -9.26000   -9.28000    2.70000    0.00100     25        1    25     101
     2   -9.26000   -9.28000    2.70000    -7.50000   -7.50000   15.20000    0.00100     50       26    75     102
     3   -7.50000   -7.50000    0.35000   -10.00000   -7.51000    2.70000    0.00100     25       76   100     103
     4  -10.00000   -7.51000    2.70000    -7.50000   -7.50000   15.20000    0.00100     50      101   150     104
     5   -7.50000   -7.50000    0.35000    -9.28000   -5.28000    2.70000    0.00100     25      151   175     105
     6   -9.28000   -5.28000    2.70000    -7.50000   -7.50000   15.20000    0.00100     50      176   225     106
     7   -7.50000   -7.50000    0.35000    -7.51000   -5.00000    2.70000    0.00100     25      226   250     107
     8   -7.51000   -5.00000    2.70000    -7.50000   -7.50000   15.20000    0.00100     50      251   300     108
     9   -7.50000   -7.50000    0.35000    -5.28000   -5.26000    2.70000    0.00100     25      301   325     109
    10   -5.28000   -5.26000    2.70000    -7.50000   -7.50000   15.20000    0.00100     50      326   375     110
    11   -7.50000   -7.50000    0.35000    -5.00000   -7.49000    2.70000    0.00100     25      376   400     111
    12   -5.00000   -7.49000    2.70000    -7.50000   -7.50000   15.20000    0.00100     50      401   450     112
    13   -7.50000   -7.50000    0.35000    -5.26000   -9.26000    2.70000    0.00100     25      451   475     113
    14   -5.26000   -9.26000    2.70000    -7.50000   -7.50000   15.20000    0.00100     50      476   525     114
    15   -7.50000   -7.50000    0.35000    -7.49000  -10.00000    2.70000    0.00100     25      526   550     115
    16   -7.49000  -10.00000    2.70000    -7.50000   -7.50000   15.20000    0.00100     50      551   600     116
    17   -7.50000   -7.50000    0.20000    -7.50000   -7.50000    0.35000    0.00100      3      601   603     117
    18   -7.50000   -7.50000    0.20000    -7.50000   -7.70000    0.20000    0.00100      4      604   607     118
    19   -7.50000   -7.70000    0.20000    -7.42000  -22.50000    0.20000    0.00100     50      608   657     119
    20   -7.50000   -7.50000    0.20000    -7.56000   -7.69000    0.20000    0.00100      4      658   661     120
    21   -7.56000   -7.69000    0.20000   -12.06000  -21.79000    0.20000    0.00100     50      662   711     121
    22   -7.50000   -7.50000    0.20000    -7.62000   -7.66000    0.20000    0.00100      4      712   715     122
    23   -7.62000   -7.66000    0.20000   -16.25000  -19.68000    0.20000    0.00100     50      716   765     123
    24   -7.50000   -7.50000    0.20000    -7.66000   -7.62000    0.20000    0.00100      4      766   769     124
    25   -7.66000   -7.62000    0.20000   -19.57000  -19.38000    0.20000    0.00100     50      770   819     125
    26   -7.50000   -7.50000    0.20000    -7.69000   -7.56000    0.20000    0.00100      4      820   823     126
    27   -7.69000   -7.56000    0.20000   -21.74000  -12.21000    0.20000    0.00100     50      824   873     127
    28   -7.50000   -7.50000    0.20000    -7.70000   -7.50000    0.20000    0.00100      4      874   877     128
    29   -7.70000   -7.50000    0.20000   -22.50000   -7.58000    0.20000    0.00100     50      878   927     129
    30    7.50000   -7.50000    0.35000     9.28000   -9.26000    2.70000    0.00100     25      928   952     130
    31    9.28000   -9.26000    2.70000     7.50000   -7.50000   15.20000    0.00100     50      953  1002     131
    32    7.50000   -7.50000    0.35000     7.51000  -10.00000    2.70000    0.00100     25     1003  1027     132
    33    7.51000  -10.00000    2.70000     7.50000   -7.50000   15.20000    0.00100     50     1028  1077     133
    34    7.50000   -7.50000    0.35000     5.28000   -9.28000    2.70000    0.00100     25     1078  1102     134
    35    5.28000   -9.28000    2.70000     7.50000   -7.50000   15.20000    0.00100     50     1103  1152     135
    36    7.50000   -7.50000    0.35000     5.00000   -7.51000    2.70000    0.00100     25     1153  1177     136
    37    5.00000   -7.51000    2.70000     7.50000   -7.50000   15.20000    0.00100     50     1178  1227     137
    38    7.50000   -7.50000    0.35000     5.26000   -5.28000    2.70000    0.00100     25     1228  1252     138
    39    5.26000   -5.28000    2.70000     7.50000   -7.50000   15.20000    0.00100     50     1253  1302     139
    40    7.50000   -7.50000    0.35000     7.49000   -5.00000    2.70000    0.00100     25     1303  1327     140
    41    7.49000   -5.00000    2.70000     7.50000   -7.50000   15.20000    0.00100     50     1328  1377     141
    42    7.50000   -7.50000    0.35000     9.26000   -5.26000    2.70000    0.00100     25     1378  1402     142
    43    9.26000   -5.26000    2.70000     7.50000   -7.50000   15.20000    0.00100     50     1403  1452     143
    44    7.50000   -7.50000    0.35000    10.00000   -7.49000    2.70000    0.00100     25     1453  1477     144
    45   10.00000   -7.49000    2.70000     7.50000   -7.50000   15.20000    0.00100     50     1478  1527     145
    46    7.50000   -7.50000    0.20000     7.50000   -7.50000    0.35000    0.00100      3     1528  1530     146
    47    7.50000   -7.50000    0.20000     7.70000   -7.50000    0.20000    0.00100      4     1531  1534     147
    48    7.70000   -7.50000    0.20000    22.50000   -7.42000    0.20000    0.00100     50     1535  1584     148
    49    7.50000   -7.50000    0.20000     7.69000   -7.56000    0.20000    0.00100      4     1585  1588     149
    50    7.69000   -7.56000    0.20000    21.79000  -12.06000    0.20000    0.00100     50     1589  1638     150
    51    7.50000   -7.50000    0.20000     7.66000   -7.62000    0.20000    0.00100      4     1639  1642     151
    52    7.66000   -7.62000    0.20000    19.68000  -16.25000    0.20000    0.00100     50     1643  1692     152
    53    7.50000   -7.50000    0.20000     7.62000   -7.66000    0.20000    0.00100      4     1693  1696     153
    54    7.62000   -7.66000    0.20000    19.38000  -19.57000    0.20000    0.00100     50     1697  1746     154
    55    7.50000   -7.50000    0.20000     7.56000   -7.69000    0.20000    0.00100      4     1747  1750     155
    56    7.56000   -7.69000    0.20000    12.21000  -21.74000    0.20000    0.00100     50     1751  1800     156
    57    7.50000   -7.50000    0.20000     7.50000   -7.70000    0.20000    0.00100      4     1801  1804     157
    58    7.50000   -7.70000    0.20000     7.58000  -22.50000    0.20000    0.00100     50     1805  1854     158
    59   -7.50000    7.50000    0.35000    -9.28000    9.26000    2.70000    0.00100     25     1855  1879     159
    60   -9.28000    9.26000    2.70000    -7.50000    7.50000   15.20000    0.00100     50     1880  1929     160
    61   -7.50000    7.50000    0.35000    -7.51000   10.00000    2.70000    0.00100     25     1930  1954     161
    62   -7.51000   10.00000    2.70000    -7.50000    7.50000   15.20000    0.00100     50     1955  2004     162
    63   -7.50000    7.50000    0.35000    -5.28000    9.28000    2.70000    0.00100     25     2005  2029     163
    64   -5.28000    9.28000    2.70000    -7.50000    7.50000   15.20000    0.00100     50     2030  2079     164
    65   -7.50000    7.50000    0.35000    -5.00000    7.51000    2.70000    0.00100     25     2080  2104     165
    66   -5.00000    7.51000    2.70000    -7.50000    7.50000   15.20000    0.00100     50     2105  2154     166
    67   -7.50000    7.50000    0.35000    -5.26000    5.28000    2.70000    0.00100     25     2155  2179     167
    68   -5.26000    5.28000    2.70000    -7.50000    7.50000   15.20000    0.00100     50     2180  2229     168
    69   -7.50000    7.50000    0.35000    -7.49000    5.00000    2.70000    0.00100     25     2230  2254     169
    70   -7.49000    5.00000    2.70000    -7.50000    7.50000   15.20000    0.00100     50     2255  2304     170
    71   -7.50000    7.50000    0.35000    -9.26000    5.26000    2.70000    0.00100     25     2305  2329     171
    72   -9.26000    5.26000    2.70000    -7.50000    7.50000   15.20000    0.00100     50     2330  2379     172
    73   -7.50000    7.50000    0.35000   -10.00000    7.49000    2.70000    0.00100     25     2380  2404     173
    74  -10.00000    7.49000    2.70000    -7.50000    7.50000   15.20000    0.00100     50     2405  2454     174
    75   -7.50000    7.50000    0.20000    -7.50000    7.50000    0.35000    0.00100      3     2455  2457     175
    76   -7.50000    7.50000    0.20000    -7.70000    7.50000    0.20000    0.00100      4     2458  2461     176
    77   -7.70000    7.50000    0.20000   -22.50000    7.42000    0.20000    0.00100     50     2462  2511     177
    78   -7.50000    7.50000    0.20000    -7.69000    7.56000    0.20000    0.00100      4     2512  2515     178
    79   -7.69000    7.56000    0.20000   -21.79000   12.06000    0.20000    0.00100     50     2516  2565     179
    80   -7.50000    7.50000    0.20000    -7.66000    7.62000    0.20000    0.00100      4     2566  2569     180
    81   -7.66000    7.62000    0.20000   -19.68000   16.25000    0.20000    0.00100     50     2570  2619     181
    82   -7.50000    7.50000    0.20000    -7.62000    7.66000    0.20000    0.00100      4     2620  2623     182
    83   -7.62000    7.66000    0.20000   -19.38000   19.57000    0.20000    0.00100     50     2624  2673     183
    84   -7.50000    7.50000    0.20000    -7.56000    7.69000    0.20000    0.00100      4     2674  2677     184
    85   -7.56000    7.69000    0.20000   -12.21000   21.74000    0.20000    0.00100     50     2678  2727     185
    86   -7.50000    7.50000    0.20000    -7.50000    7.70000    0.20000    0.00100      4     2728  2731     186
    87   -7.50000    7.70000    0.20000    -7.58000   22.50000    0.20000    0.00100     50     2732  2781     187
    88    7.50000    7.50000    0.35000     9.26000    9.28000    2.70000    0.00100     25     2782  2806     188
    89    9.26000    9.28000    2.70000     7.50000    7.50000   15.20000    0.00100     50     2807  2856     189
    90    7.50000    7.50000    0.35000    10.00000    7.51000    2.70000    0.00100     25     2857  2881     190
    91   10.00000    7.51000    2.70000     7.50000    7.50000   15.20000    0.00100     50     2882  2931     191
    92    7.50000    7.50000    0.35000     9.28000    5.28000    2.70000    0.00100     25     2932  2956     192
    93    9.28000    5.28000    2.70000     7.50000    7.50000   15.20000    0.00100     50     2957  3006     193
    94    7.50000    7.50000    0.35000     7.51000    5.00000    2.70000    0.00100     25     3007  3031     194
    95    7.51000    5.00000    2.70000     7.50000    7.50000   15.20000    0.00100     50     3032  3081     195
    96    7.50000    7.50000    0.35000     5.28000    5.26000    2.70000    0.00100     25     3082  3106     196
    97    5.28000    5.26000    2.70000     7.50000    7.50000   15.20000    0.00100     50     3107  3156     197
    98    7.50000    7.50000    0.35000     5.00000    7.49000    2.70000    0.00100     25     3157  3181     198
    99    5.00000    7.49000    2.70000     7.50000    7.50000   15.20000    0.00100     50     3182  3231     199
   100    7.50000    7.50000    0.35000     5.26000    9.26000    2.70000    0.00100     25     3232  3256     200
   101    5.26000    9.26000    2.70000     7.50000    7.50000   15.20000    0.00100     50     3257  3306     201
   102    7.50000    7.50000    0.35000     7.49000   10.00000    2.70000    0.00100     25     3307  3331     202
   103    7.49000   10.00000    2.70000     7.50000    7.50000   15.20000    0.00100     50     3332  3381     203
   104    7.50000    7.50000    0.20000     7.50000    7.50000    0.35000    0.00100      3     3382  3384     204
   105    7.50000    7.50000    0.20000     7.50000    7.70000    0.20000    0.00100      4     3385  3388     205
   106    7.50000    7.70000    0.20000     7.42000   22.50000    0.20000    0.00100     50     3389  3438     206
   107    7.50000    7.50000    0.20000     7.56000    7.69000    0.20000    0.00100      4     3439  3442     207
   108    7.56000    7.69000    0.20000    12.06000   21.79000    0.20000    0.00100     50     3443  3492     208
   109    7.50000    7.50000    0.20000     7.62000    7.66000    0.20000    0.00100      4     3493  3496     209
   110    7.62000    7.66000    0.20000    16.25000   19.68000    0.20000    0.00100     50     3497  3546     210
   111    7.50000    7.50000    0.20000     7.66000    7.62000    0.20000    0.00100      4     3547  3550     211
   112    7.66000    7.62000    0.20000    19.57000   19.38000    0.20000    0.00100     50     3551  3600     212
   113    7.50000    7.50000    0.20000     7.69000    7.56000    0.20000    0.00100      4     3601  3604     213
   114    7.69000    7.56000    0.20000    21.74000   12.21000    0.20000    0.00100     50     3605  3654     214
   115    7.50000    7.50000    0.20000     7.70000    7.50000    0.20000    0.00100      4     3655  3658     215
   116    7.70000    7.50000    0.20000    22.50000    7.58000    0.20000    0.00100     50     3659  3708     216

   GROUND PLANE SPECIFIED.

   WHERE WIRE ENDS TOUCH GROUND, CURRENT WILL BE INTERPOLATED TO IMAGE IN GROUND PLANE.


   TOTAL SEGMENTS USED= 3708     NO. SEG. IN A SYMMETRIC CELL= 3708     SYMMETRY FLAG=  0


         - MULTIPLE WIRE JUNCTIONS -
 JUNCTION    SEGMENTS  (- FOR END 1, + FOR END 2)
     1        -1  -76 -151 -226 -301 -376 -451 -526  603
     2        75  150  225  300  375  450  525  600
     3      -601 -604 -658 -712 -766 -820 -874
     4      -928-1003-1078-1153-1228-1303-1378-1453 1530
     5      1002 1077 1152 1227 1302 1377 1452 1527
     6     -1528-1531-1585-1639-1693-1747-1801
     7     -1855-1930-2005-2080-2155-2230-2305-2380 2457
     8      1929 2004 2079 2154 2229 2304 2379 2454
     9     -2455-2458-2512-2566-2620-2674-2728
    10     -2782-2857-2932-3007-3082-3157-3232-3307 3384
    11      2856 2931 3006 3081 3156 3231 3306 3381
    12     -3382-3385-3439-3493-3547-3601-3655




                                 - - - - SEGMENTATION DATA - - - -

                                        COORDINATES IN METERS

                         I+ AND I- INDICATE THE SEGMENTS BEFORE AND AFTER I


  SEG.   COORDINATES OF SEG. CENTER     SEG.     ORIENTATION ANGLES    WIRE    CONNECTION DATA   TAG
  NO.       X         Y         Z       LENGTH     ALPHA     BETA      RADIUS    I-   I    I+    NO.
     1  -7.53520  -7.53560   0.39700   0.13734   43.19198-134.67630   0.00100   -76    1    2    101
     2  -7.60560  -7.60680   0.49100   0.13734   43.19198-134.67630   0.00100     1    2    3    101
     3  -7.67600  -7.67800   0.58500   0.13734   43.19198-134.67630   0.00100     2    3    4    101
     4  -7.74640  -7.74920   0.67900   0.13734   43.19198-134.67630   0.00100     3    4    5    101
     5  -7.81680  -7.82040   0.77300   0.13734   43.19198-134.67630   0.00100     4    5    6    101
     6  -7.88720  -7.89160   0.86700   0.13734   43.19198-134.67630   0.00100     5    6    7    101
     7  -7.95760  -7.96280   0.96100   0.13734   43.19198-134.67630   0.00100     6    7    8    101
     8  -8.02800  -8.03400   1.05500   0.13734   43.19198-134.67630   0.00100     7    8    9    101
     9  -8.09840  -8.10520   1.14900   0.13734   43.19198-134.67630   0.00100     8    9   10    101
    10  -8.16880  -8.17640   1.24300   0.13734   43.19198-134.67630   0.00100     9   10   11    101
    11  -8.23920  -8.24760   1.33700   0.13734   43.19198-134.67630   0.00100    10   11   12    101
    12  -8.30960  -8.31880   1.43100   0.13734   43.19198-134.67630   0.00100    11   12   13    101
    13  -8.38000  -8.39000   1.52500   0.13734   43.19198-134.67630   0.00100    12   13   14    101
    14  -8.45040  -8.46120   1.61900   0.13734   43.19198-134.67630   0.00100    13   14   15    101
    15  -8.52080  -8.53240   1.71300   0.13734   43.19198-134.67630   0.00100    14   15   16    101
    16  -8.59120  -8.60360   1.80700   0.13734   43.19198-134.67630   0.00100    15   16   17    101
    17  -8.66160  -8.67480   1.90100   0.13734   43.19198-134.67630   0.00100    16   17   18    101
    18  -8.73200  -8.74600   1.99500   0.13734   43.19198-134.67630   0.00100    17   18   19    101
    19  -8.80240  -8.81720   2.08900   0.13734   43.19198-134.67630   0.00100    18   19   20    101
    20  -8.87280  -8.88840   2.18300   0.13734   43.19198-134.67630   0.00100    19   20   21    101
    21  -8.94320  -8.95960   2.27700   0.13734   43.19198-134.67630   0.00100    20   21   22    101
    22  -9.01360  -9.03080   2.37100   0.13734   43.19198-134.67630   0.00100    21   22   23    101
    23  -9.08400  -9.10200   2.46500   0.13734   43.19198-134.67630   0.00100    22   23   24    101
    24  -9.15440  -9.17320   2.55900   0.13734   43.19198-134.67630   0.00100    23   24   25    101
    25  -9.22480  -9.24440   2.65300   0.13734   43.19198-134.67630   0.00100    24   25   26    101
    26  -9.24240  -9.26220   2.82500   0.25496   78.67597  45.32370   0.00100    25   26   27    102
    27  -9.20720  -9.22660   3.07500   0.25496   78.67597  45.32370   0.00100    26   27   28    102
    28  -9.17200  -9.19100   3.32500   0.25496   78.67597  45.32370   0.00100    27   28   29    102
    29  -9.13680  -9.15540   3.57500   0.25496   78.67597  45.32370   0.00100    28   29   30    102
    30  -9.10160  -9.11980   3.82500   0.25496   78.67597  45.32370   0.00100    29   30   31    102
    31  -9.06640  -9.08420   4.07500   0.25496   78.67597  45.32370   0.00100    30   31   32    102
    32  -9.03120  -9.04860   4.32500   0.25496   78.67597  45.32370   0.00100    31   32   33    102
    33  -8.99600  -9.01300   4.57500   0.25496   78.67597  45.32370   0.00100    32   33   34    102
    34  -8.96080  -8.97740   4.82500   0.25496   78.67597  45.32370   0.00100    33   34   35    102
    35  -8.92560  -8.94180   5.07500   0.25496   78.67597  45.32370   0.00100    34   35   36    102
    36  -8.89040  -8.90620   5.32500   0.25496   78.67597  45.32370   0.00100    35   36   37    102
    37  -8.85520  -8.87060   5.57500   0.25496   78.67597  45.32370   0.00100    36   37   38    102
    38  -8.82000  -8.83500   5.82500   0.25496   78.67597  45.32370   0.00100    37   38   39    102
    39  -8.78480  -8.79940   6.07500   0.25496   78.67597  45.32370   0.00100    38   39   40    102
    40  -8.74960  -8.76380   6.32500   0.25496   78.67597  45.32370   0.00100    39   40   41    102
    41  -8.71440  -8.72820   6.57500   0.25496   78.67597  45.32370   0.00100    40   41   42    102
    42  -8.67920  -8.69260   6.82500   0.25496   78.67597  45.32370   0.00100    41   42   43    102
    43  -8.64400  -8.65700   7.07500   0.25496   78.67597  45.32370   0.00100    42   43   44    102
    44  -8.60880  -8.62140   7.32500   0.25496   78.67597  45.32370   0.00100    43   44   45    102
    45  -8.57360  -8.58580   7.57500   0.25496   78.67597  45.32370   0.00100    44   45   46    102
    46  -8.53840  -8.55020   7.82500   0.25496   78.67597  45.32370   0.00100    45   46   47    102
    47  -8.50320  -8.51460   8.07500   0.25496   78.67597  45.32370   0.00100    46   47   48    102
    48  -8.46800  -8.47900   8.32500   0.25496   78.67597  45.32370   0.00100    47   48   49    102
    49  -8.43280  -8.44340   8.57500   0.25496   78.67597  45.32370   0.00100    48   49   50    102
    50  -8.39760  -8.40780   8.82500   0.25496   78.67597  45.32370   0.00100    49   50   51    102
    51  -8.36240  -8.37220   9.07500   0.25496   78.67597  45.32370   0.00100    50   51   52    102
    52  -8.32720  -8.33660   9.32500   0.25496   78.67597  45.32370   0.00100    51   52   53    102
    53  -8.29200  -8.30100   9.57500   0.25496   78.67597  45.32370   0.00100    52   53   54    102
    54  -8.25680  -8.26540   9.82500   0.25496   78.67597  45.32370   0.00100    53   54   55    102
    55  -8.22160  -8.22980  10.07500   0.25496   78.67597  45.32370   0.00100    54   55   56    102
    56  -8.18640  -8.19420  10.32500   0.25496   78.67597  45.32370   0.00100    55   56   57    102
    57  -8.15120  -8.15860  10.57500   0.25496   78.67597  45.32370   0.00100    56   57   58    102
    58  -8.11600  -8.12300  10.82500   0.25496   78.67597  45.32370   0.00100    57   58   59    102
    59  -8.08080  -8.08740  11.07500   0.25496   78.67597  45.32370   0.00100    58   59   60    102
    60  -8.04560  -8.05180  11.32500   0.25496   78.67597  45.32370   0.00100    59   60   61    102
    61  -8.01040  -8.01620  11.57500   0.25496   78.67597  45.32370   0.00100    60   61   62    102
    62  -7.97520  -7.98060  11.82500   0.25496   78.67597  45.32370   0.00100    61   62   63    102
    63  -7.94000  -7.94500  12.07500   0.25496   78.67597  45.32370   0.00100    62   63   64    102
    64  -7.90480  -7.90940  12.32500   0.25496   78.67597  45.32370   0.00100    63   64   65    102
    65  -7.86960  -7.87380  12.57500   0.25496   78.67597  45.32370   0.00100    64   65   66    102
    66  -7.83440  -7.83820  12.82500   0.25496   78.67597  45.32370   0.00100    65   66   67    102
    67  -7.79920  -7.80260  13.07500   0.25496   78.67597  45.32370   0.00100    66   67   68    102
    68  -7.76400  -7.76700  13.32500   0.25496   78.67597  45.32370   0.00100    67   68   69    102
    69  -7.72880  -7.73140  13.57500   0.25496   78.67597  45.32370   0.00100    68   69   70    102
    70  -7.69360  -7.69580  13.82500   0.25496   78.67597  45.32370   0.00100    69   70   71    102
    71  -7.65840  -7.66020  14.07500   0.25496   78.67597  45.32370   0.00100    70   71   72    102
    72  -7.62320  -7.62460  14.32500   0.25496   78.67597  45.32370   0.00100    71   72   73    102
    73  -7.58800  -7.58900  14.57500   0.25496   78.67597  45.32370   0.00100    72   73   74    102
    74  -7.55280  -7.55340  14.82500   0.25496   78.67597  45.32370   0.00100    73   74   75    102
    75  -7.51760  -7.51780  15.07500   0.25496   78.67597  45.32370   0.00100    74   75 -150    102
    76  -7.55000  -7.50020   0.39700   0.13724   43.22830-179.77082   0.00100  -151   76   77    103
    77  -7.65000  -7.50060   0.49100   0.13724   43.22830-179.77082   0.00100    76   77   78    103
    78  -7.75000  -7.50100   0.58500   0.13724   43.22830-179.77082   0.00100    77   78   79    103
    79  -7.85000  -7.50140   0.67900   0.13724   43.22830-179.77082   0.00100    78   79   80    103
    80  -7.95000  -7.50180   0.77300   0.13724   43.22830-179.77082   0.00100    79   80   81    103
    81  -8.05000  -7.50220   0.86700   0.13724   43.22830-179.77082   0.00100    80   81   82    103
    82  -8.15000  -7.50260   0.96100   0.13724   43.22830-179.77082   0.00100    81   82   83    103
    83  -8.25000  -7.50300   1.05500   0.13724   43.22830-179.77082   0.00100    82   83   84    103
    84  -8.35000  -7.50340   1.14900   0.13724   43.22830-179.77082   0.00100    83   84   85    103
    85  -8.45000  -7.50380   1.24300   0.13724   43.22830-179.77082   0.00100    84   85   86    103
    86  -8.55000  -7.50420   1.33700   0.13724   43.22830-179.77082   0.00100    85   86   87    103
    87  -8.65000  -7.50460   1.43100   0.13724   43.22830-179.77082   0.00100    86   87   88    103
    88  -8.75000  -7.50500   1.52500   0.13724   43.22830-179.77082   0.00100    87   88   89    103
    89  -8.85000  -7.50540   1.61900   0.13724   43.22830-179.77082   0.00100    88   89   90    103
    90  -8.95000  -7.50580   1.71300   0.13724   43.22830-179.77082   0.00100    89   90   91    103
    91  -9.05000  -7.50620   1.80700   0.13724   43.22830-179.77082   0.00100    90   91   92    103
    92  -9.15000  -7.50660   1.90100   0.13724   43.22830-179.77082   0.00100    91   92   93    103
    93  -9.25000  -7.50700   1.99500   0.13724   43.22830-179.77082   0.00100    92   93   94    103
    94  -9.35000  -7.50740   2.08900   0.13724   43.22830-179.77082   0.00100    93   94   95    103
    95  -9.45000  -7.50780   2.18300   0.13724   43.22830-179.77082   0.00100    94   95   96    103
    96  -9.55000  -7.50820   2.27700   0.13724   43.22830-179.77082   0.00100    95   96   97    103
    97  -9.65000  -7.50860   2.37100   0.13724   43.22830-179.77082   0.00100    96   97   98    103
    98  -9.75000  -7.50900   2.46500   0.13724   43.22830-179.77082   0.00100    97   98   99    103
    99  -9.85000  -7.50940   2.55900   0.13724   43.22830-179.77082   0.00100    98   99  100    103
   100  -9.95000  -7.50980   2.65300   0.13724   43.22830-179.77082   0.00100    99  100  101    103
   101  -9.97500  -7.50990   2.82500   0.25495   78.68998   0.22918   0.00100   100  101  102    104
   102  -9.92500  -7.50970   3.07500   0.25495   78.68998   0.22918   0.00100   101  102  103    104
   103  -9.87500  -7.50950   3.32500   0.25495   78.68998   0.22918   0.00100   102  103  104    104
   104  -9.82500  -7.50930   3.57500   0.25495   78.68998   0.22918   0.00100   103  104  105    104
   105  -9.77500  -7.50910   3.82500   0.25495   78.68998   0.22918   0.00100   104  105  106    104
   106  -9.72500  -7.50890   4.07500   0.25495   78.68998   0.22918   0.00100   105  106  107    104
   107  -9.67500  -7.50870   4.32500   0.25495   78.68998   0.22918   0.00100   106  107  108    104
   108  -9.62500  -7.50850   4.57500   0.25495   78.68998   0.22918   0.00100   107  108  109    104
   109  -9.57500  -7.50830   4.82500   0.25495   78.68998   0.22918   0.00100   108  109  110    104
   110  -9.52500  -7.50810   5.07500   0.25495   78.68998   0.22918   0.00100   109  110  111    104
   111  -9.47500  -7.50790   5.32500   0.25495   78.68998   0.22918   0.00100   110  111  112    104
   112  -9.42500  -7.50770   5.57500   0.25495   78.68998   0.22918   0.00100   111  112  113    104
   113  -9.37500  -7.50750   5.82500   0.25495   78.68998   0.22918   0.00100   112  113  114    104
   114  -9.32500  -7.50730   6.07500   0.25495   78.68998   0.22918   0.00100   113  114  115    104
   115  -9.27500  -7.50710   6.32500   0.25495   78.68998   0.22918   0.00100   114  115  116    104
   116  -9.22500  -7.50690   6.57500   0.25495   78.68998   0.22918   0.00100   115  116  117    104
   117  -9.17500  -7.50670   6.82500   0.25495   78.68998   0.22918   0.00100   116  117  118    104
   118  -9.12500  -7.50650   7.07500   0.25495   78.68998   0.22918   0.00100   117  118  119    104
   119  -9.07500  -7.50630   7.32500   0.25495   78.68998   0.22918   0.00100   118  119  120    104
   120  -9.02500  -7.50610   7.57500   0.25495   78.68998   0.22918   0.00100   119  120  121    104
   121  -8.97500  -7.50590   7.82500   0.25495   78.68998   0.22918   0.00100   120  121  122    104
   122  -8.92500  -7.50570   8.07500   0.25495   78.68998   0.22918   0.00100   121  122  123    104
   123  -8.87500  -7.50550   8.32500   0.25495   78.68998   0.22918   0.00100   122  123  124    104
   124  -8.82500  -7.50530   8.57500   0.25495   78.68998   0.22918   0.00100   123  124  125    104
   125  -8.77500  -7.50510   8.82500   0.25495   78.68998   0.22918   0.00100   124  125  126    104
   126  -8.72500  -7.50490   9.07500   0.25495   78.68998   0.22918   0.00100   125  126  127    104
   127  -8.67500  -7.50470   9.32500   0.25495   78.68998   0.22918   0.00100   126  127  128    104
   128  -8.62500  -7.50450   9.57500   0.25495   78.68998   0.22918   0.00100   127  128  129    104
   129  -8.57500  -7.50430   9.82500   0.25495   78.68998   0.22918   0.00100   128  129  130    104
   130  -8.52500  -7.50410  10.07500   0.25495   78.68998   0.22918   0.00100   129  130  131    104
   131  -8.47500  -7.50390  10.32500   0.25495   78.68998   0.22918   0.00100   130  131  132    104
   132  -8.42500  -7.50370  10.57500   0.25495   78.68998   0.22918   0.00100   131  132  133    104
   133  -8.37500  -7.50350  10.82500   0.25495   78.68998   0.22918   0.00100   132  133  134    104
   134  -8.32500  -7.50330  11.07500   0.25495   78.68998   0.22918   0.00100   133  134  135    104
   135  -8.27500  -7.50310  11.32500   0.25495   78.68998   0.22918   0.00100   134  135  136    104
   136  -8.22500  -7.50290  11.57500   0.25495   78.68998   0.22918   0.00100   135  136  137    104
   137  -8.17500  -7.50270  11.82500   0.25495   78.68998   0.22918   0.00100   136  137  138    104
   138  -8.12500  -7.50250  12.07500   0.25495   78.68998   0.22918   0.00100   137  138  139    104
   139  -8.07500  -7.50230  12.32500   0.25495   78.68998   0.22918   0.00100   138  139  140    104
   140  -8.02500  -7.50210  12.57500   0.25495   78.68998   0.22918   0.00100   139  140  141    104
   141  -7.97500  -7.50190  12.82500   0.25495   78.68998   0.22918   0.00100   140  141  142    104
   142  -7.92500  -7.50170  13.07500   0.25495   78.68998   0.22918   0.00100   141  142  143    104
   143  -7.87500  -7.50150  13.32500   0.25495   78.68998   0.22918   0.00100   142  143  144    104
   144  -7.82500  -7.50130  13.57500   0.25495   78.68998   0.22918   0.00100   143  144  145    104
   145  -7.77500  -7.50110  13.82500   0.25495   78.68998   0.22918   0.00100   144  145  146    104
   146  -7.72500  -7.50090  14.07500   0.25495   78.68998   0.22918   0.00100   145  146  147    104
   147  -7.67500  -7.50070  14.32500   0.25495   78.68998   0.22918   0.00100   146  147  148    104
   148  -7.62500  -7.50050  14.57500   0.25495   78.68998   0.22918   0.00100   147  148  149    104
   149  -7.57500  -7.50030  14.82500   0.25495   78.68998   0.22918   0.00100   148  149  150    104
   150  -7.52500  -7.50010  15.07500   0.25495   78.68998   0.22918   0.00100   149  150 -225    104
   151  -7.53560  -7.45560   0.39700   0.14762   39.55224 128.72270   0.00100  -226  151  152    105
   152  -7.60680  -7.36680   0.49100   0.14762   39.55224 128.72270   0.00100   151  152  153    105
   153  -7.67800  -7.27800   0.58500   0.14762   39.55224 128.72270   0.00100   152  153  154    105
   154  -7.74920  -7.18920   0.67900   0.14762   39.55224 128.72270   0.00100   153  154  155    105
   155  -7.82040  -7.10040   0.77300   0.14762   39.55224 128.72270   0.00100   154  155  156    105
   156  -7.89160  -7.01160   0.86700   0.14762   39.55224 128.72270   0.00100   155  156  157    105
   157  -7.96280  -6.92280   0.96100   0.14762   39.55224 128.72270   0.00100   156  157  158    105
   158  -8.03400  -6.83400   1.05500   0.14762   39.55224 128.72270   0.00100   157  158  159    105
   159  -8.10520  -6.74520   1.14900   0.14762   39.55224 128.72270   0.00100   158  159  160    105
   160  -8.17640  -6.65640   1.24300   0.14762   39.55224 128.72270   0.00100   159  160  161    105
   161  -8.24760  -6.56760   1.33700   0.14762   39.55224 128.72270   0.00100   160  161  162    105
   162  -8.31880  -6.47880   1.43100   0.14762   39.55224 128.72270   0.00100   161  162  163    105
   163  -8.39000  -6.39000   1.52500   0.14762   39.55224 128.72270   0.00100   162  163  164    105
   164  -8.46120  -6.30120   1.61900   0.14762   39.55224 128.72270   0.00100   163  164  165    105
   165  -8.53240  -6.21240   1.71300   0.14762   39.55224 128.72270   0.00100   164  165  166    105
   166  -8.60360  -6.12360   1.80700   0.14762   39.55224 128.72270   0.00100   165  166  167    105
   167  -8.67480  -6.03480   1.90100   0.14762   39.55224 128.72270   0.00100   166  167  168    105
   168  -8.74600  -5.94600   1.99500   0.14762   39.55224 128.72270   0.00100   167  168  169    105
   169  -8.81720  -5.85720   2.08900   0.14762   39.55224 128.72270   0.00100   168  169  170    105
   170  -8.88840  -5.76840   2.18300   0.14762   39.55224 128.72270   0.00100   169  170  171    105
   171  -8.95960  -5.67960   2.27700   0.14762   39.55224 128.72270   0.00100   170  171  172    105
   172  -9.03080  -5.59080   2.37100   0.14762   39.55224 128.72270   0.00100   171  172  173    105
   173  -9.10200  -5.50200   2.46500   0.14762   39.55224 128.72270   0.00100   172  173  174    105
   174  -9.17320  -5.41320   2.55900   0.14762   39.55224 128.72270   0.00100   173  174  175    105
   175  -9.24440  -5.32440   2.65300   0.14762   39.55224 128.72270   0.00100   174  175  176    105
   176  -9.26220  -5.30220   2.82500   0.25640   77.17578 -51.27730   0.00100   175  176  177    106
   177  -9.22660  -5.34660   3.07500   0.25640   77.17578 -51.27730   0.00100   176  177  178    106
   178  -9.19100  -5.39100   3.32500   0.25640   77.17578 -51.27730   0.00100   177  178  179    106
   179  -9.15540  -5.43540   3.57500   0.25640   77.17578 -51.27730   0.00100   178  179  180    106
   180  -9.11980  -5.47980   3.82500   0.25640   77.17578 -51.27730   0.00100   179  180  181    106
   181  -9.08420  -5.52420   4.07500   0.25640   77.17578 -51.27730   0.00100   180  181  182    106
   182  -9.04860  -5.56860   4.32500   0.25640   77.17578 -51.27730   0.00100   181  182  183    106
   183  -9.01300  -5.61300   4.57500   0.25640   77.17578 -51.27730   0.00100   182  183  184    106
   184  -8.97740  -5.65740   4.82500   0.25640   77.17578 -51.27730   0.00100   183  184  185    106
   185  -8.94180  -5.70180   5.07500   0.25640   77.17578 -51.27730   0.00100   184  185  186    106
   186  -8.90620  -5.74620   5.32500   0.25640   77.17578 -51.27730   0.00100   185  186  187    106
   187  -8.87060  -5.79060   5.57500   0.25640   77.17578 -51.27730   0.00100   186  187  188    106
   188  -8.83500  -5.83500   5.82500   0.25640   77.17578 -51.27730   0.00100   187  188  189    106
   189  -8.79940  -5.87940   6.07500   0.25640   77.17578 -51.27730   0.00100   188  189  190    106
   190  -8.76380  -5.92380   6.32500   0.25640   77.17578 -51.27730   0.00100   189  190  191    106
   191  -8.72820  -5.96820   6.57500   0.25640   77.17578 -51.27730   0.00100   190  191  192    106
   192  -8.69260  -6.01260   6.82500   0.25640   77.17578 -51.27730   0.00100   191  192  193    106
   193  -8.65700  -6.05700   7.07500   0.25640   77.17578 -51.27730   0.00100   192  193  194    106
   194  -8.62140  -6.10140   7.32500   0.25640   77.17578 -51.27730   0.00100   193  194  195    106
   195  -8.58580  -6.14580   7.57500   0.25640   77.17578 -51.27730   0.00100   194  195  196    106
   196  -8.55020  -6.19020   7.82500   0.25640   77.17578 -51.27730   0.00100   195  196  197    106
   197  -8.51460  -6.23460   8.07500   0.25640   77.17578 -51.27730   0.00100   196  197  198    106
   198  -8.47900  -6.27900   8.32500   0.25640   77.17578 -51.27730   0.00100   197  198  199    106
   199  -8.44340  -6.32340   8.57500   0.25640   77.17578 -51.27730   0.00100   198  199  200    106
   200  -8.40780  -6.36780   8.82500   0.25640   77.17578 -51.27730   0.00100   199  200  201    106
   201  -8.37220  -6.41220   9.07500   0.25640   77.17578 -51.27730   0.00100   200  201  202    106
   202  -8.33660  -6.45660   9.32500   0.25640   77.17578 -51.27730   0.00100   201  202  203    106
   203  -8.30100  -6.50100   9.57500   0.25640   77.17578 -51.27730   0.00100   202  203  204    106
   204  -8.26540  -6.54540   9.82500   0.25640   77.17578 -51.27730   0.00100   203  204  205    106
   205  -8.22980  -6.58980  10.07500   0.25640   77.17578 -51.27730   0.00100   204  205  206    106
   206  -8.19420  -6.63420  10.32500   0.25640   77.17578 -51.27730   0.00100   205  206  207    106
   207  -8.15860  -6.67860  10.57500   0.25640   77.17578 -51.27730   0.00100   206  207  208    106
   208  -8.12300  -6.72300  10.82500   0.25640   77.17578 -51.27730   0.00100   207  208  209    106
   209  -8.08740  -6.76740  11.07500   0.25640   77.17578 -51.27730   0.00100   208  209  210    106
   210  -8.05180  -6.81180  11.32500   0.25640   77.17578 -51.27730   0.00100   209  210  211    106
   211  -8.01620  -6.85620  11.57500   0.25640   77.17578 -51.27730   0.00100   210  211  212    106
   212  -7.98060  -6.90060  11.82500   0.25640   77.17578 -51.27730   0.00100   211  212  213    106
   213  -7.94500  -6.94500  12.07500   0.25640   77.17578 -51.27730   0.00100   212  213  214    106
   214  -7.90940  -6.98940  12.32500   0.25640   77.17578 -51.27730   0.00100   213  214  215    106
   215  -7.87380  -7.03380  12.57500   0.25640   77.17578 -51.27730   0.00100   214  215  216    106
   216  -7.83820  -7.07820  12.82500   0.25640   77.17578 -51.27730   0.00100   215  216  217    106
   217  -7.80260  -7.12260  13.07500   0.25640   77.17578 -51.27730   0.00100   216  217  218    106
   218  -7.76700  -7.16700  13.32500   0.25640   77.17578 -51.27730   0.00100   217  218  219    106
   219  -7.73140  -7.21140  13.57500   0.25640   77.17578 -51.27730   0.00100   218  219  220    106
   220  -7.69580  -7.25580  13.82500   0.25640   77.17578 -51.27730   0.00100   219  220  221    106
   221  -7.66020  -7.30020  14.07500   0.25640   77.17578 -51.27730   0.00100   220  221  222    106
   222  -7.62460  -7.34460  14.32500   0.25640   77.17578 -51.27730   0.00100   221  222  223    106
   223  -7.58900  -7.38900  14.57500   0.25640   77.17578 -51.27730   0.00100   222  223  224    106
   224  -7.55340  -7.43340  14.82500   0.25640   77.17578 -51.27730   0.00100   223  224  225    106
   225  -7.51780  -7.47780  15.07500   0.25640   77.17578 -51.27730   0.00100   224  225 -300    106
   226  -7.50020  -7.45000   0.39700   0.13724   43.22830  90.22918   0.00100  -301  226  227    107
   227  -7.50060  -7.35000   0.49100   0.13724   43.22830  90.22918   0.00100   226  227  228    107
   228  -7.50100  -7.25000   0.58500   0.13724   43.22830  90.22918   0.00100   227  228  229    107
   229  -7.50140  -7.15000   0.67900   0.13724   43.22830  90.22918   0.00100   228  229  230    107
   230  -7.50180  -7.05000   0.77300   0.13724   43.22830  90.22918   0.00100   229  230  231    107
   231  -7.50220  -6.95000   0.86700   0.13724   43.22830  90.22918   0.00100   230  231  232    107
   232  -7.50260  -6.85000   0.96100   0.13724   43.22830  90.22918   0.00100   231  232  233    107
   233  -7.50300  -6.75000   1.05500   0.13724   43.22830  90.22918   0.00100   232  233  234    107
   234  -7.50340  -6.65000   1.14900   0.13724   43.22830  90.22918   0.00100   233  234  235    107
   235  -7.50380  -6.55000   1.24300   0.13724   43.22830  90.22918   0.00100   234  235  236    107
   236  -7.50420  -6.45000   1.33700   0.13724   43.22830  90.22918   0.00100   235  236  237    107
   237  -7.50460  -6.35000   1.43100   0.13724   43.22830  90.22918   0.00100   236  237  238    107
   238  -7.50500  -6.25000   1.52500   0.13724   43.22830  90.22918   0.00100   237  238  239    107
   239  -7.50540  -6.15000   1.61900   0.13724   43.22830  90.22918   0.00100   238  239  240    107
   240  -7.50580  -6.05000   1.71300   0.13724   43.22830  90.22918   0.00100   239  240  241    107
   241  -7.50620  -5.95000   1.80700   0.13724   43.22830  90.22918   0.00100   240  241  242    107
   242  -7.50660  -5.85000   1.90100   0.13724   43.22830  90.22918   0.00100   241  242  243    107
   243  -7.50700  -5.75000   1.99500   0.13724   43.22830  90.22918   0.00100   242  243  244    107
   244  -7.50740  -5.65000   2.08900   0.13724   43.22830  90.22918   0.00100   243  244  245    107
   245  -7.50780  -5.55000   2.18300   0.13724   43.22830  90.22918   0.00100   244  245  246    107
   246  -7.50820  -5.45000   2.27700   0.13724   43.22830  90.22918   0.00100   245  246  247    107
   247  -7.50860  -5.35000   2.37100   0.13724   43.22830  90.22918   0.00100   246  247  248    107
   248  -7.50900  -5.25000   2.46500   0.13724   43.22830  90.22918   0.00100   247  248  249    107
   249  -7.50940  -5.15000   2.55900   0.13724   43.22830  90.22918   0.00100   248  249  250    107
   250  -7.50980  -5.05000   2.65300   0.13724   43.22830  90.22918   0.00100   249  250  251    107
   251  -7.50990  -5.02500   2.82500   0.25495   78.68998 -89.77082   0.00100   250  251  252    108
   252  -7.50970  -5.07500   3.07500   0.25495   78.68998 -89.77082   0.00100   251  252  253    108
   253  -7.50950  -5.12500   3.32500   0.25495   78.68998 -89.77082   0.00100   252  253  254    108
   254  -7.50930  -5.17500   3.57500   0.25495   78.68998 -89.77082   0.00100   253  254  255    108
   255  -7.50910  -5.22500   3.82500   0.25495   78.68998 -89.77082   0.00100   254  255  256    108
   256  -7.50890  -5.27500   4.07500   0.25495   78.68998 -89.77082   0.00100   255  256  257    108
   257  -7.50870  -5.32500   4.32500   0.25495   78.68998 -89.77082   0.00100   256  257  258    108
   258  -7.50850  -5.37500   4.57500   0.25495   78.68998 -89.77082   0.00100   257  258  259    108
   259  -7.50830  -5.42500   4.82500   0.25495   78.68998 -89.77082   0.00100   258  259  260    108
   260  -7.50810  -5.47500   5.07500   0.25495   78.68998 -89.77082   0.00100   259  260  261    108
   261  -7.50790  -5.52500   5.32500   0.25495   78.68998 -89.77082   0.00100   260  261  262    108
   262  -7.50770  -5.57500   5.57500   0.25495   78.68998 -89.77082   0.00100   261  262  263    108
   263  -7.50750  -5.62500   5.82500   0.25495   78.68998 -89.77082   0.00100   262  263  264    108
   264  -7.50730  -5.67500   6.07500   0.25495   78.68998 -89.77082   0.00100   263  264  265    108
   265  -7.50710  -5.72500   6.32500   0.25495   78.68998 -89.77082   0.00100   264  265  266    108
   266  -7.50690  -5.77500   6.57500   0.25495   78.68998 -89.77082   0.00100   265  266  267    108
   267  -7.50670  -5.82500   6.82500   0.25495   78.68998 -89.77082   0.00100   266  267  268    108
   268  -7.50650  -5.87500   7.07500   0.25495   78.68998 -89.77082   0.00100   267  268  269    108
   269  -7.50630  -5.92500   7.32500   0.25495   78.68998 -89.77082   0.00100   268  269  270    108
   270  -7.50610  -5.97500   7.57500   0.25495   78.68998 -89.77082   0.00100   269  270  271    108
   271  -7.50590  -6.02500   7.82500   0.25495   78.68998 -89.77082   0.00100   270  271  272    108
   272  -7.50570  -6.07500   8.07500   0.25495   78.68998 -89.77082   0.00100   271  272  273    108
   273  -7.50550  -6.12500   8.32500   0.25495   78.68998 -89.77082   0.00100   272  273  274    108
   274  -7.50530  -6.17500   8.57500   0.25495   78.68998 -89.77082   0.00100   273  274  275    108
   275  -7.50510  -6.22500   8.82500   0.25495   78.68998 -89.77082   0.00100   274  275  276    108
   276  -7.50490  -6.27500   9.07500   0.25495   78.68998 -89.77082   0.00100   275  276  277    108
   277  -7.50470  -6.32500   9.32500   0.25495   78.68998 -89.77082   0.00100   276  277  278    108
   278  -7.50450  -6.37500   9.57500   0.25495   78.68998 -89.77082   0.00100   277  278  279    108
   279  -7.50430  -6.42500   9.82500   0.25495   78.68998 -89.77082   0.00100   278  279  280    108
   280  -7.50410  -6.47500  10.07500   0.25495   78.68998 -89.77082   0.00100   279  280  281    108
   281  -7.50390  -6.52500  10.32500   0.25495   78.68998 -89.77082   0.00100   280  281  282    108
   282  -7.50370  -6.57500  10.57500   0.25495   78.68998 -89.77082   0.00100   281  282  283    108
   283  -7.50350  -6.62500  10.82500   0.25495   78.68998 -89.77082   0.00100   282  283  284    108
   284  -7.50330  -6.67500  11.07500   0.25495   78.68998 -89.77082   0.00100   283  284  285    108
   285  -7.50310  -6.72500  11.32500   0.25495   78.68998 -89.77082   0.00100   284  285  286    108
   286  -7.50290  -6.77500  11.57500   0.25495   78.68998 -89.77082   0.00100   285  286  287    108
   287  -7.50270  -6.82500  11.82500   0.25495   78.68998 -89.77082   0.00100   286  287  288    108
   288  -7.50250  -6.87500  12.07500   0.25495   78.68998 -89.77082   0.00100   287  288  289    108
   289  -7.50230  -6.92500  12.32500   0.25495   78.68998 -89.77082   0.00100   288  289  290    108
   290  -7.50210  -6.97500  12.57500   0.25495   78.68998 -89.77082   0.00100   289  290  291    108
   291  -7.50190  -7.02500  12.82500   0.25495   78.68998 -89.77082   0.00100   290  291  292    108
   292  -7.50170  -7.07500  13.07500   0.25495   78.68998 -89.77082   0.00100   291  292  293    108
   293  -7.50150  -7.12500  13.32500   0.25495   78.68998 -89.77082   0.00100   292  293  294    108
   294  -7.50130  -7.17500  13.57500   0.25495   78.68998 -89.77082   0.00100   293  294  295    108
   295  -7.50110  -7.22500  13.82500   0.25495   78.68998 -89.77082   0.00100   294  295  296    108
   296  -7.50090  -7.27500  14.07500   0.25495   78.68998 -89.77082   0.00100   295  296  297    108
   297  -7.50070  -7.32500  14.32500   0.25495   78.68998 -89.77082   0.00100   296  297  298    108
   298  -7.50050  -7.37500  14.57500   0.25495   78.68998 -89.77082   0.00100   297  298  299    108
   299  -7.50030  -7.42500  14.82500   0.25495   78.68998 -89.77082   0.00100   298  299  300    108
   300  -7.50010  -7.47500  15.07500   0.25495   78.68998 -89.77082   0.00100   299  300 -375    108
   301  -7.45560  -7.45520   0.39700   0.15732   36.69163  45.25693   0.00100  -376  301  302    109
   302  -7.36680  -7.36560   0.49100   0.15732   36.69163  45.25693   0.00100   301  302  303    109
   303  -7.27800  -7.27600   0.58500   0.15732   36.69163  45.25693   0.00100   302  303  304    109
   304  -7.18920  -7.18640   0.67900   0.15732   36.69163  45.25693   0.00100   303  304  305    109
   305  -7.10040  -7.09680   0.77300   0.15732   36.69163  45.25693   0.00100   304  305  306    109
   306  -7.01160  -7.00720   0.86700   0.15732   36.69163  45.25693   0.00100   305  306  307    109
   307  -6.92280  -6.91760   0.96100   0.15732   36.69163  45.25693   0.00100   306  307  308    109
   308  -6.83400  -6.82800   1.05500   0.15732   36.69163  45.25693   0.00100   307  308  309    109
   309  -6.74520  -6.73840   1.14900   0.15732   36.69163  45.25693   0.00100   308  309  310    109
   310  -6.65640  -6.64880   1.24300   0.15732   36.69163  45.25693   0.00100   309  310  311    109
   311  -6.56760  -6.55920   1.33700   0.15732   36.69163  45.25693   0.00100   310  311  312    109
   312  -6.47880  -6.46960   1.43100   0.15732   36.69163  45.25693   0.00100   311  312  313    109
   313  -6.39000  -6.38000   1.52500   0.15732   36.69163  45.25693   0.00100   312  313  314    109
   314  -6.30120  -6.29040   1.61900   0.15732   36.69163  45.25693   0.00100   313  314  315    109
   315  -6.21240  -6.20080   1.71300   0.15732   36.69163  45.25693   0.00100   314  315  316    109
   316  -6.12360  -6.11120   1.80700   0.15732   36.69163  45.25693   0.00100   315  316  317    109
   317  -6.03480  -6.02160   1.90100   0.15732   36.69163  45.25693   0.00100   316  317  318    109
   318  -5.94600  -5.93200   1.99500   0.15732   36.69163  45.25693   0.00100   317  318  319    109
   319  -5.85720  -5.84240   2.08900   0.15732   36.69163  45.25693   0.00100   318  319  320    109
   320  -5.76840  -5.75280   2.18300   0.15732   36.69163  45.25693   0.00100   319  320  321    109
   321  -5.67960  -5.66320   2.27700   0.15732   36.69163  45.25693   0.00100   320  321  322    109
   322  -5.59080  -5.57360   2.37100   0.15732   36.69163  45.25693   0.00100   321  322  323    109
   323  -5.50200  -5.48400   2.46500   0.15732   36.69163  45.25693   0.00100   322  323  324    109
   324  -5.41320  -5.39440   2.55900   0.15732   36.69163  45.25693   0.00100   323  324  325    109
   325  -5.32440  -5.30480   2.65300   0.15732   36.69163  45.25693   0.00100   324  325  326    109
   326  -5.30220  -5.28240   2.82500   0.25783   75.83989-134.74307   0.00100   325  326  327    110
   327  -5.34660  -5.32720   3.07500   0.25783   75.83989-134.74307   0.00100   326  327  328    110
   328  -5.39100  -5.37200   3.32500   0.25783   75.83989-134.74307   0.00100   327  328  329    110
   329  -5.43540  -5.41680   3.57500   0.25783   75.83989-134.74307   0.00100   328  329  330    110
   330  -5.47980  -5.46160   3.82500   0.25783   75.83989-134.74307   0.00100   329  330  331    110
   331  -5.52420  -5.50640   4.07500   0.25783   75.83989-134.74307   0.00100   330  331  332    110
   332  -5.56860  -5.55120   4.32500   0.25783   75.83989-134.74307   0.00100   331  332  333    110
   333  -5.61300  -5.59600   4.57500   0.25783   75.83989-134.74307   0.00100   332  333  334    110
   334  -5.65740  -5.64080   4.82500   0.25783   75.83989-134.74307   0.00100   333  334  335    110
   335  -5.70180  -5.68560   5.07500   0.25783   75.83989-134.74307   0.00100   334  335  336    110
   336  -5.74620  -5.73040   5.32500   0.25783   75.83989-134.74307   0.00100   335  336  337    110
   337  -5.79060  -5.77520   5.57500   0.25783   75.83989-134.74307   0.00100   336  337  338    110
   338  -5.83500  -5.82000   5.82500   0.25783   75.83989-134.74307   0.00100   337  338  339    110
   339  -5.87940  -5.86480   6.07500   0.25783   75.83989-134.74307   0.00100   338  339  340    110
   340  -5.92380  -5.90960   6.32500   0.25783   75.83989-134.74307   0.00100   339  340  341    110
   341  -5.96820  -5.95440   6.57500   0.25783   75.83989-134.74307   0.00100   340  341  342    110
   342  -6.01260  -5.99920   6.82500   0.25783   75.83989-134.74307   0.00100   341  342  343    110
   343  -6.05700  -6.04400   7.07500   0.25783   75.83989-134.74307   0.00100   342  343  344    110
   344  -6.10140  -6.08880   7.32500   0.25783   75.83989-134.74307   0.00100   343  344  345    110
   345  -6.14580  -6.13360   7.57500   0.25783   75.83989-134.74307   0.00100   344  345  346    110
   346  -6.19020  -6.17840   7.82500   0.25783   75.83989-134.74307   0.00100   345  346  347    110
   347  -6.23460  -6.22320   8.07500   0.25783   75.83989-134.74307   0.00100   346  347  348    110
   348  -6.27900  -6.26800   8.32500   0.25783   75.83989-134.74307   0.00100   347  348  349    110
   349  -6.32340  -6.31280   8.57500   0.25783   75.83989-134.74307   0.00100   348  349  350    110
   350  -6.36780  -6.35760   8.82500   0.25783   75.83989-134.74307   0.00100   349  350  351    110
   351  -6.41220  -6.40240   9.07500   0.25783   75.83989-134.74307   0.00100   350  351  352    110
   352  -6.45660  -6.44720   9.32500   0.25783   75.83989-134.74307   0.00100   351  352  353    110
   353  -6.50100  -6.49200   9.57500   0.25783   75.83989-134.74307   0.00100   352  353  354    110
   354  -6.54540  -6.53680   9.82500   0.25783   75.83989-134.74307   0.00100   353  354  355    110
   355  -6.58980  -6.58160  10.07500   0.25783   75.83989-134.74307   0.00100   354  355  356    110
   356  -6.63420  -6.62640  10.32500   0.25783   75.83989-134.74307   0.00100   355  356  357    110
   357  -6.67860  -6.67120  10.57500   0.25783   75.83989-134.74307   0.00100   356  357  358    110
   358  -6.72300  -6.71600  10.82500   0.25783   75.83989-134.74307   0.00100   357  358  359    110
   359  -6.76740  -6.76080  11.07500   0.25783   75.83989-134.74307   0.00100   358  359  360    110
   360  -6.81180  -6.80560  11.32500   0.25783   75.83989-134.74307   0.00100   359  360  361    110
   361  -6.85620  -6.85040  11.57500   0.25783   75.83989-134.74307   0.00100   360  361  362    110
   362  -6.90060  -6.89520  11.82500   0.25783   75.83989-134.74307   0.00100   361  362  363    110
   363  -6.94500  -6.94000  12.07500   0.25783   75.83989-134.74307   0.00100   362  363  364    110
   364  -6.98940  -6.98480  12.32500   0.25783   75.83989-134.74307   0.00100   363  364  365    110
   365  -7.03380  -7.02960  12.57500   0.25783   75.83989-134.74307   0.00100   364  365  366    110
   366  -7.07820  -7.07440  12.82500   0.25783   75.83989-134.74307   0.00100   365  366  367    110
   367  -7.12260  -7.11920  13.07500   0.25783   75.83989-134.74307   0.00100   366  367  368    110
   368  -7.16700  -7.16400  13.32500   0.25783   75.83989-134.74307   0.00100   367  368  369    110
   369  -7.21140  -7.20880  13.57500   0.25783   75.83989-134.74307   0.00100   368  369  370    110
   370  -7.25580  -7.25360  13.82500   0.25783   75.83989-134.74307   0.00100   369  370  371    110
   371  -7.30020  -7.29840  14.07500   0.25783   75.83989-134.74307   0.00100   370  371  372    110
   372  -7.34460  -7.34320  14.32500   0.25783   75.83989-134.74307   0.00100   371  372  373    110
   373  -7.38900  -7.38800  14.57500   0.25783   75.83989-134.74307   0.00100   372  373  374    110
   374  -7.43340  -7.43280  14.82500   0.25783   75.83989-134.74307   0.00100   373  374  375    110
   375  -7.47780  -7.47760  15.07500   0.25783   75.83989-134.74307   0.00100   374  375 -450    110
   376  -7.45000  -7.49980   0.39700   0.13724   43.22830   0.22918   0.00100  -451  376  377    111
   377  -7.35000  -7.49940   0.49100   0.13724   43.22830   0.22918   0.00100   376  377  378    111
   378  -7.25000  -7.49900   0.58500   0.13724   43.22830   0.22918   0.00100   377  378  379    111
   379  -7.15000  -7.49860   0.67900   0.13724   43.22830   0.22918   0.00100   378  379  380    111
   380  -7.05000  -7.49820   0.77300   0.13724   43.22830   0.22918   0.00100   379  380  381    111
   381  -6.95000  -7.49780   0.86700   0.13724   43.22830   0.22918   0.00100   380  381  382    111
   382  -6.85000  -7.49740   0.96100   0.13724   43.22830   0.22918   0.00100   381  382  383    111
   383  -6.75000  -7.49700   1.05500   0.13724   43.22830   0.22918   0.00100   382  383  384    111
   384  -6.65000  -7.49660   1.14900   0.13724   43.22830   0.22918   0.00100   383  384  385    111
   385  -6.55000  -7.49620   1.24300   0.13724   43.22830   0.22918   0.00100   384  385  386    111
   386  -6.45000  -7.49580   1.33700   0.13724   43.22830   0.22918   0.00100   385  386  387    111
   387  -6.35000  -7.49540   1.43100   0.13724   43.22830   0.22918   0.00100   386  387  388    111
   388  -6.25000  -7.49500   1.52500   0.13724   43.22830   0.22918   0.00100   387  388  389    111
   389  -6.15000  -7.49460   1.61900   0.13724   43.22830   0.22918   0.00100   388  389  390    111
   390  -6.05000  -7.49420   1.71300   0.13724   43.22830   0.22918   0.00100   389  390  391    111
   391  -5.95000  -7.49380   1.80700   0.13724   43.22830   0.22918   0.00100   390  391  392    111
   392  -5.85000  -7.49340   1.90100   0.13724   43.22830   0.22918   0.00100   391  392  393    111
   393  -5.75000  -7.49300   1.99500   0.13724   43.22830   0.22918   0.00100   392  393  394    111
   394  -5.65000  -7.49260   2.08900   0.13724   43.22830   0.22918   0.00100   393  394  395    111
   395  -5.55000  -7.49220   2.18300   0.13724   43.22830   0.22918   0.00100   394  395  396    111
   396  -5.45000  -7.49180   2.27700   0.13724   43.22830   0.22918   0.00100   395  396  397    111
   397  -5.35000  -7.49140   2.37100   0.13724   43.22830   0.22918   0.00100   396  397  398    111
   398  -5.25000  -7.49100   2.46500   0.13724   43.22830   0.22918   0.00100   397  398  399    111
   399  -5.15000  -7.49060   2.55900   0.13724   43.22830   0.22918   0.00100   398  399  400    111
   400  -5.05000  -7.49020   2.65300   0.13724   43.22830   0.22918   0.00100   399  400  401    111
   401  -5.02500  -7.49010   2.82500   0.25495   78.68998-179.77082   0.00100   400  401  402    112
   402  -5.07500  -7.49030   3.07500   0.25495   78.68998-179.77082   0.00100   401  402  403    112
   403  -5.12500  -7.49050   3.32500   0.25495   78.68998-179.77082   0.00100   402  403  404    112
   404  -5.17500  -7.49070   3.57500   0.25495   78.68998-179.77082   0.00100   403  404  405    112
   405  -5.22500  -7.49090   3.82500   0.25495   78.68998-179.77082   0.00100   404  405  406    112
   406  -5.27500  -7.49110   4.07500   0.25495   78.68998-179.77082   0.00100   405  406  407    112
   407  -5.32500  -7.49130   4.32500   0.25495   78.68998-179.77082   0.00100   406  407  408    112
   408  -5.37500  -7.49150   4.57500   0.25495   78.68998-179.77082   0.00100   407  408  409    112
   409  -5.42500  -7.49170   4.82500   0.25495   78.68998-179.77082   0.00100   408  409  410    112
   410  -5.47500  -7.49190   5.07500   0.25495   78.68998-179.77082   0.00100   409  410  411    112
   411  -5.52500  -7.49210   5.32500   0.25495   78.68998-179.77082   0.00100   410  411  412    112
   412  -5.57500  -7.49230   5.57500   0.25495   78.68998-179.77082   0.00100   411  412  413    112
   413  -5.62500  -7.49250   5.82500   0.25495   78.68998-179.77082   0.00100   412  413  414    112
   414  -5.67500  -7.49270   6.07500   0.25495   78.68998-179.77082   0.00100   413  414  415    112
   415  -5.72500  -7.49290   6.32500   0.25495   78.68998-179.77082   0.00100   414  415  416    112
   416  -5.77500  -7.49310   6.57500   0.25495   78.68998-179.77082   0.00100   415  416  417    112
   417  -5.82500  -7.49330   6.82500   0.25495   78.68998-179.77082   0.00100   416  417  418    112
   418  -5.87500  -7.49350   7.07500   0.25495   78.68998-179.77082   0.00100   417  418  419    112
   419  -5.92500  -7.49370   7.32500   0.25495   78.68998-179.77082   0.00100   418  419  420    112
   420  -5.97500  -7.49390   7.57500   0.25495   78.68998-179.77082   0.00100   419  420  421    112
   421  -6.02500  -7.49410   7.82500   0.25495   78.68998-179.77082   0.00100   420  421  422    112
   422  -6.07500  -7.49430   8.07500   0.25495   78.68998-179.77082   0.00100   421  422  423    112
   423  -6.12500  -7.49450   8.32500   0.25495   78.68998-179.77082   0.00100   422  423  424    112
   424  -6.17500  -7.49470   8.57500   0.25495   78.68998-179.77082   0.00100   423  424  425    112
   425  -6.22500  -7.49490   8.82500   0.25495   78.68998-179.77082   0.00100   424  425  426    112
   426  -6.27500  -7.49510   9.07500   0.25495   78.68998-179.77082   0.00100   425  426  427    112
   427  -6.32500  -7.49530   9.32500   0.25495   78.68998-179.77082   0.00100   426  427  428    112
   428  -6.37500  -7.49550   9.57500   0.25495   78.68998-179.77082   0.00100   427  428  429    112
   429  -6.42500  -7.49570   9.82500   0.25495   78.68998-179.77082   0.00100   428  429  430    112
   430  -6.47500  -7.49590  10.07500   0.25495   78.68998-179.77082   0.00100   429  430  431    112
   431  -6.52500  -7.49610  10.32500   0.25495   78.68998-179.77082   0.00100   430  431  432    112
   432  -6.57500  -7.49630  10.57500   0.25495   78.68998-179.77082   0.00100   431  432  433    112
   433  -6.62500  -7.49650  10.82500   0.25495   78.68998-179.77082   0.00100   432  433  434    112
   434  -6.67500  -7.49670  11.07500   0.25495   78.68998-179.77082   0.00100   433  434  435    112
   435  -6.72500  -7.49690  11.32500   0.25495   78.68998-179.77082   0.00100   434  435  436    112
   436  -6.77500  -7.49710  11.57500   0.25495   78.68998-179.77082   0.00100   435  436  437    112
   437  -6.82500  -7.49730  11.82500   0.25495   78.68998-179.77082   0.00100   436  437  438    112
   438  -6.87500  -7.49750  12.07500   0.25495   78.68998-179.77082   0.00100   437  438  439    112
   439  -6.92500  -7.49770  12.32500   0.25495   78.68998-179.77082   0.00100   438  439  440    112
   440  -6.97500  -7.49790  12.57500   0.25495   78.68998-179.77082   0.00100   439  440  441    112
   441  -7.02500  -7.49810  12.82500   0.25495   78.68998-179.77082   0.00100   440  441  442    112
   442  -7.07500  -7.49830  13.07500   0.25495   78.68998-179.77082   0.00100   441  442  443    112
   443  -7.12500  -7.49850  13.32500   0.25495   78.68998-179.77082   0.00100   442  443  444    112
   444  -7.17500  -7.49870  13.57500   0.25495   78.68998-179.77082   0.00100   443  444  445    112
   445  -7.22500  -7.49890  13.82500   0.25495   78.68998-179.77082   0.00100   444  445  446    112
   446  -7.27500  -7.49910  14.07500   0.25495   78.68998-179.77082   0.00100   445  446  447    112
   447  -7.32500  -7.49930  14.32500   0.25495   78.68998-179.77082   0.00100   446  447  448    112
   448  -7.37500  -7.49950  14.57500   0.25495   78.68998-179.77082   0.00100   447  448  449    112
   449  -7.42500  -7.49970  14.82500   0.25495   78.68998-179.77082   0.00100   448  449  450    112
   450  -7.47500  -7.49990  15.07500   0.25495   78.68998-179.77082   0.00100   449  450 -525    112
   451  -7.45520  -7.53520   0.39700   0.14772   39.52032 -38.15723   0.00100  -526  451  452    113
   452  -7.36560  -7.60560   0.49100   0.14772   39.52032 -38.15723   0.00100   451  452  453    113
   453  -7.27600  -7.67600   0.58500   0.14772   39.52032 -38.15723   0.00100   452  453  454    113
   454  -7.18640  -7.74640   0.67900   0.14772   39.52032 -38.15723   0.00100   453  454  455    113
   455  -7.09680  -7.81680   0.77300   0.14772   39.52032 -38.15723   0.00100   454  455  456    113
   456  -7.00720  -7.88720   0.86700   0.14772   39.52032 -38.15723   0.00100   455  456  457    113
   457  -6.91760  -7.95760   0.96100   0.14772   39.52032 -38.15723   0.00100   456  457  458    113
   458  -6.82800  -8.02800   1.05500   0.14772   39.52032 -38.15723   0.00100   457  458  459    113
   459  -6.73840  -8.09840   1.14900   0.14772   39.52032 -38.15723   0.00100   458  459  460    113
   460  -6.64880  -8.16880   1.24300   0.14772   39.52032 -38.15723   0.00100   459  460  461    113
   461  -6.55920  -8.23920   1.33700   0.14772   39.52032 -38.15723   0.00100   460  461  462    113
   462  -6.46960  -8.30960   1.43100   0.14772   39.52032 -38.15723   0.00100   461  462  463    113
   463  -6.38000  -8.38000   1.52500   0.14772   39.52032 -38.15723   0.00100   462  463  464    113
   464  -6.29040  -8.45040   1.61900   0.14772   39.52032 -38.15723   0.00100   463  464  465    113
   465  -6.20080  -8.52080   1.71300   0.14772   39.52032 -38.15723   0.00100   464  465  466    113
   466  -6.11120  -8.59120   1.80700   0.14772   39.52032 -38.15723   0.00100   465  466  467    113
   467  -6.02160  -8.66160   1.90100   0.14772   39.52032 -38.15723   0.00100   466  467  468    113
   468  -5.93200  -8.73200   1.99500   0.14772   39.52032 -38.15723   0.00100   467  468  469    113
   469  -5.84240  -8.80240   2.08900   0.14772   39.52032 -38.15723   0.00100   468  469  470    113
   470  -5.75280  -8.87280   2.18300   0.14772   39.52032 -38.15723   0.00100   469  470  471    113
   471  -5.66320  -8.94320   2.27700   0.14772   39.52032 -38.15723   0.00100   470  471  472    113
   472  -5.57360  -9.01360   2.37100   0.14772   39.52032 -38.15723   0.00100   471  472  473    113
   473  -5.48400  -9.08400   2.46500   0.14772   39.52032 -38.15723   0.00100   472  473  474    113
   474  -5.39440  -9.15440   2.55900   0.14772   39.52032 -38.15723   0.00100   473  474  475    113
   475  -5.30480  -9.22480   2.65300   0.14772   39.52032 -38.15723   0.00100   474  475  476    113
   476  -5.28240  -9.24240   2.82500   0.25641   77.16170 141.84277   0.00100   475  476  477    114
   477  -5.32720  -9.20720   3.07500   0.25641   77.16170 141.84277   0.00100   476  477  478    114
   478  -5.37200  -9.17200   3.32500   0.25641   77.16170 141.84277   0.00100   477  478  479    114
   479  -5.41680  -9.13680   3.57500   0.25641   77.16170 141.84277   0.00100   478  479  480    114
   480  -5.46160  -9.10160   3.82500   0.25641   77.16170 141.84277   0.00100   479  480  481    114
   481  -5.50640  -9.06640   4.07500   0.25641   77.16170 141.84277   0.00100   480  481  482    114
   482  -5.55120  -9.03120   4.32500   0.25641   77.16170 141.84277   0.00100   481  482  483    114
   483  -5.59600  -8.99600   4.57500   0.25641   77.16170 141.84277   0.00100   482  483  484    114
   484  -5.64080  -8.96080   4.82500   0.25641   77.16170 141.84277   0.00100   483  484  485    114
   485  -5.68560  -8.92560   5.07500   0.25641   77.16170 141.84277   0.00100   484  485  486    114
   486  -5.73040  -8.89040   5.32500   0.25641   77.16170 141.84277   0.00100   485  486  487    114
   487  -5.77520  -8.85520   5.57500   0.25641   77.16170 141.84277   0.00100   486  487  488    114
   488  -5.82000  -8.82000   5.82500   0.25641   77.16170 141.84277   0.00100   487  488  489    114
   489  -5.86480  -8.78480   6.07500   0.25641   77.16170 141.84277   0.00100   488  489  490    114
   490  -5.90960  -8.74960   6.32500   0.25641   77.16170 141.84277   0.00100   489  490  491    114
   491  -5.95440  -8.71440   6.57500   0.25641   77.16170 141.84277   0.00100   490  491  492    114
   492  -5.99920  -8.67920   6.82500   0.25641   77.16170 141.84277   0.00100   491  492  493    114
   493  -6.04400  -8.64400   7.07500   0.25641   77.16170 141.84277   0.00100   492  493  494    114
   494  -6.08880  -8.60880   7.32500   0.25641   77.16170 141.84277   0.00100   493  494  495    114
   495  -6.13360  -8.57360   7.57500   0.25641   77.16170 141.84277   0.00100   494  495  496    114
   496  -6.17840  -8.53840   7.82500   0.25641   77.16170 141.84277   0.00100   495  496  497    114
   497  -6.22320  -8.50320   8.07500   0.25641   77.16170 141.84277   0.00100   496  497  498    114
   498  -6.26800  -8.46800   8.32500   0.25641   77.16170 141.84277   0.00100   497  498  499    114
   499  -6.31280  -8.43280   8.57500   0.25641   77.16170 141.84277   0.00100   498  499  500    114
   500  -6.35760  -8.39760   8.82500   0.25641   77.16170 141.84277   0.00100   499  500  501    114
   501  -6.40240  -8.36240   9.07500   0.25641   77.16170 141.84277   0.00100   500  501  502    114
   502  -6.44720  -8.32720   9.32500   0.25641   77.16170 141.84277   0.00100   501  502  503    114
   503  -6.49200  -8.29200   9.57500   0.25641   77.16170 141.84277   0.00100   502  503  504    114
   504  -6.53680  -8.25680   9.82500   0.25641   77.16170 141.84277   0.00100   503  504  505    114
   505  -6.58160  -8.22160  10.07500   0.25641   77.16170 141.84277   0.00100   504  505  506    114
   506  -6.62640  -8.18640  10.32500   0.25641   77.16170 141.84277   0.00100   505  506  507    114
   507  -6.67120  -8.15120  10.57500   0.25641   77.16170 141.84277   0.00100   506  507  508    114
   508  -6.71600  -8.11600  10.82500   0.25641   77.16170 141.84277   0.00100   507  508  509    114
   509  -6.76080  -8.08080  11.07500   0.25641   77.16170 141.84277   0.00100   508  509  510    114
   510  -6.80560  -8.04560  11.32500   0.25641   77.16170 141.84277   0.00100   509  510  511    114
   511  -6.85040  -8.01040  11.57500   0.25641   77.16170 141.84277   0.00100   510  511  512    114
   512  -6.89520  -7.97520  11.82500   0.25641   77.16170 141.84277   0.00100   511  512  513    114
   513  -6.94000  -7.94000  12.07500   0.25641   77.16170 141.84277   0.00100   512  513  514    114
   514  -6.98480  -7.90480  12.32500   0.25641   77.16170 141.84277   0.00100   513  514  515    114
   515  -7.02960  -7.86960  12.57500   0.25641   77.16170 141.84277   0.00100   514  515  516    114
   516  -7.07440  -7.83440  12.82500   0.25641   77.16170 141.84277   0.00100   515  516  517    114
   517  -7.11920  -7.79920  13.07500   0.25641   77.16170 141.84277   0.00100   516  517  518    114
   518  -7.16400  -7.76400  13.32500   0.25641   77.16170 141.84277   0.00100   517  518  519    114
   519  -7.20880  -7.72880  13.57500   0.25641   77.16170 141.84277   0.00100   518  519  520    114
   520  -7.25360  -7.69360  13.82500   0.25641   77.16170 141.84277   0.00100   519  520  521    114
   521  -7.29840  -7.65840  14.07500   0.25641   77.16170 141.84277   0.00100   520  521  522    114
   522  -7.34320  -7.62320  14.32500   0.25641   77.16170 141.84277   0.00100   521  522  523    114
   523  -7.38800  -7.58800  14.57500   0.25641   77.16170 141.84277   0.00100   522  523  524    114
   524  -7.43280  -7.55280  14.82500   0.25641   77.16170 141.84277   0.00100   523  524  525    114
   525  -7.47760  -7.51760  15.07500   0.25641   77.16170 141.84277   0.00100   524  525 -600    114
   526  -7.49980  -7.55000   0.39700   0.13724   43.22830 -89.77082   0.00100   603  526  527    115
   527  -7.49940  -7.65000   0.49100   0.13724   43.22830 -89.77082   0.00100   526  527  528    115
   528  -7.49900  -7.75000   0.58500   0.13724   43.22830 -89.77082   0.00100   527  528  529    115
   529  -7.49860  -7.85000   0.67900   0.13724   43.22830 -89.77082   0.00100   528  529  530    115
   530  -7.49820  -7.95000   0.77300   0.13724   43.22830 -89.77082   0.00100   529  530  531    115
   531  -7.49780  -8.05000   0.86700   0.13724   43.22830 -89.77082   0.00100   530  531  532    115
   532  -7.49740  -8.15000   0.96100   0.13724   43.22830 -89.77082   0.00100   531  532  533    115
   533  -7.49700  -8.25000   1.05500   0.13724   43.22830 -89.77082   0.00100   532  533  534    115
   534  -7.49660  -8.35000   1.14900   0.13724   43.22830 -89.77082   0.00100   533  534  535    115
   535  -7.49620  -8.45000   1.24300   0.13724   43.22830 -89.77082   0.00100   534  535  536    115
   536  -7.49580  -8.55000   1.33700   0.13724   43.22830 -89.77082   0.00100   535  536  537    115
   537  -7.49540  -8.65000   1.43100   0.13724   43.22830 -89.77082   0.00100   536  537  538    115
   538  -7.49500  -8.75000   1.52500   0.13724   43.22830 -89.77082   0.00100   537  538  539    115
   539  -7.49460  -8.85000   1.61900   0.13724   43.22830 -89.77082   0.00100   538  539  540    115
   540  -7.49420  -8.95000   1.71300   0.13724   43.22830 -89.77082   0.00100   539  540  541    115
   541  -7.49380  -9.05000   1.80700   0.13724   43.22830 -89.77082   0.00100   540  541  542    115
   542  -7.49340  -9.15000   1.90100   0.13724   43.22830 -89.77082   0.00100   541  542  543    115
   543  -7.49300  -9.25000   1.99500   0.13724   43.22830 -89.77082   0.00100   542  543  544    115
   544  -7.49260  -9.35000   2.08900   0.13724   43.22830 -89.77082   0.00100   543  544  545    115
   545  -7.49220  -9.45000   2.18300   0.13724   43.22830 -89.77082   0.00100   544  545  546    115
   546  -7.49180  -9.55000   2.27700   0.13724   43.22830 -89.77082   0.00100   545  546  547    115
   547  -7.49140  -9.65000   2.37100   0.13724   43.22830 -89.77082   0.00100   546  547  548    115
   548  -7.49100  -9.75000   2.46500   0.13724   43.22830 -89.77082   0.00100   547  548  549    115
   549  -7.49060  -9.85000   2.55900   0.13724   43.22830 -89.77082   0.00100   548  549  550    115
   550  -7.49020  -9.95000   2.65300   0.13724   43.22830 -89.77082   0.00100   549  550  551    115
   551  -7.49010  -9.97500   2.82500   0.25495   78.68998  90.22918   0.00100   550  551  552    116
   552  -7.49030  -9.92500   3.07500   0.25495   78.68998  90.22918   0.00100   551  552  553    116
   553  -7.49050  -9.87500   3.32500   0.25495   78.68998  90.22918   0.00100   552  553  554    116
   554  -7.49070  -9.82500   3.57500   0.25495   78.68998  90.22918   0.00100   553  554  555    116
   555  -7.49090  -9.77500   3.82500   0.25495   78.68998  90.22918   0.00100   554  555  556    116
   556  -7.49110  -9.72500   4.07500   0.25495   78.68998  90.22918   0.00100   555  556  557    116
   557  -7.49130  -9.67500   4.32500   0.25495   78.68998  90.22918   0.00100   556  557  558    116
   558  -7.49150  -9.62500   4.57500   0.25495   78.68998  90.22918   0.00100   557  558  559    116
   559  -7.49170  -9.57500   4.82500   0.25495   78.68998  90.22918   0.00100   558  559  560    116
   560  -7.49190  -9.52500   5.07500   0.25495   78.68998  90.22918   0.00100   559  560  561    116
   561  -7.49210  -9.47500   5.32500   0.25495   78.68998  90.22918   0.00100   560  561  562    116
   562  -7.49230  -9.42500   5.57500   0.25495   78.68998  90.22918   0.00100   561  562  563    116
   563  -7.49250  -9.37500   5.82500   0.25495   78.68998  90.22918   0.00100   562  563  564    116
   564  -7.49270  -9.32500   6.07500   0.25495   78.68998  90.22918   0.00100   563  564  565    116
   565  -7.49290  -9.27500   6.32500   0.25495   78.68998  90.22918   0.00100   564  565  566    116
   566  -7.49310  -9.22500   6.57500   0.25495   78.68998  90.22918   0.00100   565  566  567    116
   567  -7.49330  -9.17500   6.82500   0.25495   78.68998  90.22918   0.00100   566  567  568    116
   568  -7.49350  -9.12500   7.07500   0.25495   78.68998  90.22918   0.00100   567  568  569    116
   569  -7.49370  -9.07500   7.32500   0.25495   78.68998  90.22918   0.00100   568  569  570    116
   570  -7.49390  -9.02500   7.57500   0.25495   78.68998  90.22918   0.00100   569  570  571    116
   571  -7.49410  -8.97500   7.82500   0.25495   78.68998  90.22918   0.00100   570  571  572    116
   572  -7.49430  -8.92500   8.07500   0.25495   78.68998  90.22918   0.00100   571  572  573    116
   573  -7.49450  -8.87500   8.32500   0.25495   78.68998  90.22918   0.00100   572  573  574    116
   574  -7.49470  -8.82500   8.57500   0.25495   78.68998  90.22918   0.00100   573  574  575    116
   575  -7.49490  -8.77500   8.82500   0.25495   78.68998  90.22918   0.00100   574  575  576    116
   576  -7.49510  -8.72500   9.07500   0.25495   78.68998  90.22918   0.00100   575  576  577    116
   577  -7.49530  -8.67500   9.32500   0.25495   78.68998  90.22918   0.00100   576  577  578    116
   578  -7.49550  -8.62500   9.57500   0.25495   78.68998  90.22918   0.00100   577  578  579    116
   579  -7.49570  -8.57500   9.82500   0.25495   78.68998  90.22918   0.00100   578  579  580    116
   580  -7.49590  -8.52500  10.07500   0.25495   78.68998  90.22918   0.00100   579  580  581    116
   581  -7.49610  -8.47500  10.32500   0.25495   78.68998  90.22918   0.00100   580  581  582    116
   582  -7.49630  -8.42500  10.57500   0.25495   78.68998  90.22918   0.00100   581  582  583    116
   583  -7.49650  -8.37500  10.82500   0.25495   78.68998  90.22918   0.00100   582  583  584    116
   584  -7.49670  -8.32500  11.07500   0.25495   78.68998  90.22918   0.00100   583  584  585    116
   585  -7.49690  -8.27500  11.32500   0.25495   78.68998  90.22918   0.00100   584  585  586    116
   586  -7.49710  -8.22500  11.57500   0.25495   78.68998  90.22918   0.00100   585  586  587    116
   587  -7.49730  -8.17500  11.82500   0.25495   78.68998  90.22918   0.00100   586  587  588    116
   588  -7.49750  -8.12500  12.07500   0.25495   78.68998  90.22918   0.00100   587  588  589    116
   589  -7.49770  -8.07500  12.32500   0.25495   78.68998  90.22918   0.00100   588  589  590    116
   590  -7.49790  -8.02500  12.57500   0.25495   78.68998  90.22918   0.00100   589  590  591    116
   591  -7.49810  -7.97500  12.82500   0.25495   78.68998  90.22918   0.00100   590  591  592    116
   592  -7.49830  -7.92500  13.07500   0.25495   78.68998  90.22918   0.00100   591  592  593    116
   593  -7.49850  -7.87500  13.32500   0.25495   78.68998  90.22918   0.00100   592  593  594    116
   594  -7.49870  -7.82500  13.57500   0.25495   78.68998  90.22918   0.00100   593  594  595    116
   595  -7.49890  -7.77500  13.82500   0.25495   78.68998  90.22918   0.00100   594  595  596    116
   596  -7.49910  -7.72500  14.07500   0.25495   78.68998  90.22918   0.00100   595  596  597    116
   597  -7.49930  -7.67500  14.32500   0.25495   78.68998  90.22918   0.00100   596  597  598    116
   598  -7.49950  -7.62500  14.57500   0.25495   78.68998  90.22918   0.00100   597  598  599    116
   599  -7.49970  -7.57500  14.82500   0.25495   78.68998  90.22918   0.00100   598  599  600    116
   600  -7.49990  -7.52500  15.07500   0.25495   78.68998  90.22918   0.00100   599  600  -75    116
   601  -7.50000  -7.50000   0.22500   0.05000   90.00000   0.00000   0.00100  -604  601  602    117
   602  -7.50000  -7.50000   0.27500   0.05000   90.00000   0.00000   0.00100   601  602  603    117
   603  -7.50000  -7.50000   0.32500   0.05000   90.00000   0.00000   0.00100   602  603    1    117
   604  -7.50000  -7.52500   0.20000   0.05000    0.00000 -90.00000   0.00100  -658  604  605    118
   605  -7.50000  -7.57500   0.20000   0.05000    0.00000 -90.00000   0.00100   604  605  606    118
   606  -7.50000  -7.62500   0.20000   0.05000    0.00000 -90.00000   0.00100   605  606  607    118
   607  -7.50000  -7.67500   0.20000   0.05000    0.00000 -90.00000   0.00100   606  607  608    118
   608  -7.49920  -7.84800   0.20000   0.29600    0.00000 -89.69030   0.00100   607  608  609    119
   609  -7.49760  -8.14400   0.20000   0.29600    0.00000 -89.69030   0.00100   608  609  610    119
   610  -7.49600  -8.44000   0.20000   0.29600    0.00000 -89.69030   0.00100   609  610  611    119
   611  -7.49440  -8.73600   0.20000   0.29600    0.00000 -89.69030   0.00100   610  611  612    119
   612  -7.49280  -9.03200   0.20000   0.29600    0.00000 -89.69030   0.00100   611  612  613    119
   613  -7.49120  -9.32800   0.20000   0.29600    0.00000 -89.69030   0.00100   612  613  614    119
   614  -7.48960  -9.62400   0.20000   0.29600    0.00000 -89.69030   0.00100   613  614  615    119
   615  -7.48800  -9.92000   0.20000   0.29600    0.00000 -89.69030   0.00100   614  615  616    119
   616  -7.48640 -10.21600   0.20000   0.29600    0.00000 -89.69030   0.00100   615  616  617    119
   617  -7.48480 -10.51200   0.20000   0.29600    0.00000 -89.69030   0.00100   616  617  618    119
   618  -7.48320 -10.80800   0.20000   0.29600    0.00000 -89.69030   0.00100   617  618  619    119
   619  -7.48160 -11.10400   0.20000   0.29600    0.00000 -89.69030   0.00100   618  619  620    119
   620  -7.48000 -11.40000   0.20000   0.29600    0.00000 -89.69030   0.00100   619  620  621    119
   621  -7.47840 -11.69600   0.20000   0.29600    0.00000 -89.69030   0.00100   620  621  622    119
   622  -7.47680 -11.99200   0.20000   0.29600    0.00000 -89.69030   0.00100   621  622  623    119
   623  -7.47520 -12.28800   0.20000   0.29600    0.00000 -89.69030   0.00100   622  623  624    119
   624  -7.47360 -12.58400   0.20000   0.29600    0.00000 -89.69030   0.00100   623  624  625    119
   625  -7.47200 -12.88000   0.20000   0.29600    0.00000 -89.69030   0.00100   624  625  626    119
   626  -7.47040 -13.17600   0.20000   0.29600    0.00000 -89.69030   0.00100   625  626  627    119
   627  -7.46880 -13.47200   0.20000   0.29600    0.00000 -89.69030   0.00100   626  627  628    119
   628  -7.46720 -13.76800   0.20000   0.29600    0.00000 -89.69030   0.00100   627  628  629    119
   629  -7.46560 -14.06400   0.20000   0.29600    0.00000 -89.69030   0.00100   628  629  630    119
   630  -7.46400 -14.36000   0.20000   0.29600    0.00000 -89.69030   0.00100   629  630  631    119
   631  -7.46240 -14.65600   0.20000   0.29600    0.00000 -89.69030   0.00100   630  631  632    119
   632  -7.46080 -14.95200   0.20000   0.29600    0.00000 -89.69030   0.00100   631  632  633    119
   633  -7.45920 -15.24800   0.20000   0.29600    0.00000 -89.69030   0.00100   632  633  634    119
   634  -7.45760 -15.54400   0.20000   0.29600    0.00000 -89.69030   0.00100   633  634  635    119
   635  -7.45600 -15.84000   0.20000   0.29600    0.00000 -89.69030   0.00100   634  635  636    119
   636  -7.45440 -16.13600   0.20000   0.29600    0.00000 -89.69030   0.00100   635  636  637    119
[...]
   40.00   315.00      -3.56   -3.37   -0.45    0.34351    45.80  RIGHT     1.04845E-01   138.96    1.07166E-01   101.03
   45.00   315.00     -22.17   -4.73   -4.66    0.13302   -88.93  LEFT      1.23051E-02    -7.87    9.16029E-02    89.99
   50.00   315.00      -0.07   -0.85    2.57    0.51060    40.59  RIGHT     1.56758E-01   164.19    1.43233E-01   109.77
   55.00   315.00       1.10    1.28    4.20    0.91468    51.96  RIGHT     1.79211E-01   170.62    1.83086E-01    85.57
   60.00   315.00      -0.94    2.38    4.04    0.60144    70.49  RIGHT     1.41827E-01   144.43    2.07728E-01    72.91
   65.00   315.00       1.82    1.80    4.82    0.23046    44.92  RIGHT     1.94885E-01    97.50    1.94408E-01    71.54
   70.00   315.00      -0.50    1.48    3.61    0.20007    52.03  RIGHT     1.49155E-01    79.11    1.87381E-01    55.86
   75.00   315.00      -3.52   -1.89    0.38    0.37645    52.10  LEFT      1.05381E-01    53.69    1.27008E-01    95.83
   80.00   315.00       3.06   -3.80    3.87    0.04829    24.30  LEFT      2.24590E-01    51.14    1.01939E-01    58.50
   85.00   315.00      -4.16   -9.83   -3.12    0.10106    27.08  LEFT      9.78856E-02    40.75    5.09503E-02    54.89
   90.00   315.00    -197.21 -999.99 -196.99    0.00000     0.00            2.17822E-11   -60.39    4.92592E-12    97.19
    0.00   320.00     -20.30   -9.83   -9.46    0.06618    73.71  RIGHT     1.52615E-02    22.05    5.09418E-02     8.18
    5.00   320.00       0.92   -7.68    1.48    0.27503    14.08  RIGHT     1.75609E-01   148.92    6.52111E-02    97.34
   10.00   320.00       0.26   -4.58    1.49    0.05595   -29.70  RIGHT     1.62786E-01   -10.60    9.32398E-02   176.83
   15.00   320.00       1.54   -5.93    2.26    0.26177    18.50  LEFT      1.88667E-01   129.47    7.98429E-02   172.51
   20.00   320.00      -8.82   -6.35   -4.40    0.12257   -53.29  LEFT      5.72275E-02   -68.75    7.60529E-02    96.70
   25.00   320.00       2.19   -4.86    2.97    0.12440    23.13  RIGHT     2.03294E-01  -169.17    9.03243E-02   171.55
   30.00   320.00      -1.75   -6.15   -0.40    0.03671   -31.04  LEFT      1.29160E-01    19.84    7.78542E-02  -164.91
   35.00   320.00      -9.25   -1.67   -0.97    0.37044   -78.93  LEFT      5.44528E-02  -159.63    1.30316E-01   -45.93
   40.00   320.00     -10.02   -3.24   -2.41    0.18367    67.17  LEFT      4.98272E-02   -16.71    1.08795E-01    11.28
   45.00   320.00      -3.93   -1.63    0.38    0.52238    58.44  RIGHT     1.00475E-01    47.94    1.30870E-01   -10.23
   50.00   320.00      -2.05    1.45    3.05    0.37001    60.15  RIGHT     1.24704E-01    78.36    1.86727E-01    33.55
   55.00   320.00       2.16   -2.67    3.39    0.12165    29.32  RIGHT     2.02562E-01   128.90    1.16143E-01   112.78
   60.00   320.00       0.25   -4.84    1.42    0.15166    28.25  RIGHT     1.62570E-01   119.17    9.04754E-02    98.75
   65.00   320.00       0.31    2.00    4.25    0.01693    50.51  RIGHT     1.63790E-01   130.37    1.98776E-01   128.40
   70.00   320.00      -1.34   -0.87    1.91    0.01673    46.57  LEFT      1.35342E-01   122.50    1.42990E-01   124.42
   75.00   320.00      -0.92   -3.49    0.99    0.24774    35.54  LEFT      1.42041E-01   150.95    1.05741E-01  -179.89
   80.00   320.00      -1.25   -0.91    1.93    0.11621    46.14  LEFT      1.36758E-01   150.34    1.42180E-01   163.61
   85.00   320.00      -1.02  -23.47   -1.00    0.06582    -2.11  RIGHT     1.40469E-01   162.04    1.05962E-02    42.92
   90.00   320.00    -199.74 -999.99 -198.28    0.00000     0.00            1.62736E-11    98.63    1.03061E-11   -29.21
    0.00   325.00     -18.15  -10.09   -9.46    0.06618    68.71  RIGHT     1.95428E-02    18.93    4.94576E-02     7.81
    5.00   325.00       1.68  -10.67    1.93    0.24104    -0.27  RIGHT     1.91728E-01  -138.91    4.62232E-02   130.02
   10.00   325.00      -1.46   -8.51   -0.68    0.39487   -11.72  RIGHT     1.33465E-01   113.10    5.93312E-02     0.07
   15.00   325.00      -2.45   -7.95   -1.37    0.48597    12.41  LEFT      1.19178E-01    -6.55    6.32203E-02    65.19
   20.00   325.00      -6.06   -1.49   -0.19    0.18885   -60.61  RIGHT     7.86417E-02   144.02    1.33105E-01   -11.38
   25.00   325.00       0.77  -12.87    0.95    0.06893    11.10  LEFT      1.72583E-01  -157.73    3.58888E-02  -137.60
   30.00   325.00      -0.81   -2.45    1.46    0.67005   -30.36  RIGHT     1.43875E-01    31.91    1.19189E-01   -77.82
   35.00   325.00     -10.48   -7.59   -5.79    0.49121   -60.82  RIGHT     4.72567E-02   165.47    6.58932E-02    42.15
   40.00   325.00     -18.39  -17.39  -14.85    0.79694    60.49  RIGHT     1.90135E-02   177.28    2.13383E-02    98.39
   45.00   325.00      -1.77  -11.95   -1.37    0.30646     2.52  RIGHT     1.28864E-01   -57.57    3.98927E-02  -140.18
   50.00   325.00       2.01   -5.01    2.79    0.22243    21.22  RIGHT     1.99025E-01    -0.32    8.87402E-02   -35.06
   55.00   325.00       0.31    2.31    4.44    0.42671    54.56  RIGHT     1.63748E-01    71.32    2.06211E-01    23.49
   60.00   325.00      -0.40   -2.29    1.77    0.38109    36.65  RIGHT     1.50865E-01   125.28    1.21318E-01    82.32
   65.00   325.00      -1.36    0.76    2.84    0.34738    53.86  RIGHT     1.35099E-01   148.85    1.72373E-01   109.18
   70.00   325.00      -1.29   -1.08    1.82    0.03167    45.71  RIGHT     1.36097E-01  -178.89    1.39485E-01   177.48
   75.00   325.00      -0.87   -2.45    1.42    0.49414    36.40  RIGHT     1.42881E-01  -126.91    1.19156E-01   179.25
   80.00   325.00      -1.40   -4.42    0.35    0.21360    34.27  LEFT      1.34385E-01  -130.10    9.49479E-02  -104.42
   85.00   325.00      -3.26   -7.93   -1.98    0.43940    21.74  RIGHT     1.08523E-01   -82.19    6.34220E-02  -139.90
   90.00   325.00    -999.99 -999.99 -999.99    0.00000     0.00            4.87347E-12   -72.96    5.71238E-12  -102.88
    0.00   330.00     -16.47  -10.42   -9.46    0.06618    63.71  RIGHT     2.37127E-02    16.92    4.75992E-02     7.41
    5.00   330.00       0.57   -4.00    1.87    0.48927   -19.10  RIGHT     1.68704E-01   -69.69    9.96971E-02   174.64
   10.00   330.00      -1.64   -9.48   -0.98    0.34153    12.47  RIGHT     1.30730E-01  -122.64    5.30392E-02   175.97
   15.00   330.00      -8.22   -6.49   -4.26    0.33211   -52.06  LEFT      6.13494E-02   167.79    7.47939E-02   -49.80
   20.00   330.00      -3.11   -4.60   -0.78    0.64783   -32.76  RIGHT     1.10382E-01    13.12    9.30257E-02   -99.06
   25.00   330.00      -4.50   -7.77   -2.83    0.66036   -11.78  LEFT      9.40750E-02  -149.21    6.45397E-02   -49.53
   30.00   330.00       0.97  -14.17    1.10    0.05487    -9.43  LEFT      1.76552E-01    73.81    3.08916E-02  -124.99
   35.00   330.00      -4.48  -28.50   -4.46    0.06003    -1.09  RIGHT     9.42915E-02  -133.79    5.93996E-03   118.64
   40.00   330.00     -12.63   -5.48   -4.72    0.41104    81.05  RIGHT     3.69146E-02   -27.71    8.40341E-02  -100.44
   45.00   330.00      -5.32   -5.47   -2.38    0.91332   -39.65  RIGHT     8.55984E-02   141.49    8.41738E-02    46.39
   50.00   330.00      -2.29   -1.48    1.14    0.66427    51.92  RIGHT     1.21346E-01   -96.50    1.33179E-01  -164.29
   55.00   330.00       0.58    1.78    4.23    0.32749    49.91  RIGHT     1.68786E-01    25.40    1.93829E-01   -11.27
   60.00   330.00      -2.13    3.28    4.38    0.33087    66.77  RIGHT     1.23595E-01    92.12    2.30362E-01    46.41
   65.00   330.00       0.50   -1.30    2.70    0.26839    38.18  RIGHT     1.67244E-01  -176.98    1.35982E-01   152.26
   70.00   330.00      -1.79   -9.28   -1.08    0.26361    18.37  RIGHT     1.28545E-01  -115.19    5.42910E-02  -158.63
   75.00   330.00      -0.37    2.00    3.98    0.10301    52.88  LEFT      1.51386E-01   -76.17    1.98818E-01   -63.96
   80.00   330.00      -0.86   -2.39    1.46    0.20833    39.51  RIGHT     1.43151E-01   -40.25    1.20002E-01   -64.18
   85.00   330.00      -4.36   -5.67   -1.96    0.17885    40.41  LEFT      9.56040E-02    -2.73    8.22195E-02    17.79
   90.00   330.00    -999.99 -999.99 -199.75    0.00000     0.00            1.21609E-11  -113.06    1.08018E-11   115.46
    0.00   335.00     -15.11  -10.83   -9.46    0.06618    58.71  RIGHT     2.77225E-02    15.50    4.53811E-02     6.98
    5.00   335.00      -2.06   -0.95    1.54    0.59668   -52.75  RIGHT     1.24588E-01    -0.75    1.41553E-01  -118.23
   10.00   335.00      -1.35   -1.15    1.76    0.42121    45.93  LEFT      1.35220E-01    -9.14    1.38332E-01    36.56
   15.00   335.00      -3.90   -0.64    1.04    0.55354   -66.20  RIGHT     1.00844E-01   -46.71    1.46678E-01  -161.54
   20.00   335.00       1.54  -10.80    1.79    0.00421    13.57  RIGHT     1.88609E-01   -87.43    4.55423E-02   -88.48
   25.00   335.00     -11.18  -15.18   -9.72    0.34634    28.41  RIGHT     4.36115E-02   159.30    2.75297E-02   116.06
   30.00   335.00      -5.68   -2.15   -0.55    0.39794    61.05  LEFT      8.21193E-02   120.13    1.23383E-01   168.27
   35.00   335.00     -13.80  -13.85  -10.82    0.92577    43.02  LEFT      3.22384E-02   -20.91    3.20676E-02    64.68
   40.00   335.00      -8.59   -8.61   -5.59    0.19803   -44.93  LEFT      5.87812E-02   173.17    5.86485E-02   -29.23
   45.00   335.00      -3.98   -2.85   -0.37    0.64686    54.19  RIGHT     9.98898E-02   -41.14    1.13751E-01  -108.03
   50.00   335.00       1.66   -2.77    3.00    0.43006    23.45  RIGHT     1.91284E-01   139.54    1.14851E-01    84.22
   55.00   335.00      -1.53   -0.11    2.25    0.45846    52.19  RIGHT     1.32492E-01   -49.98    1.56038E-01  -100.14
   60.00   335.00      -3.82    2.11    3.09    0.21491    65.30  RIGHT     1.01718E-01    68.45    2.01308E-01    37.77
   65.00   335.00      -1.68   -4.68    0.09    0.45021    29.94  RIGHT     1.30235E-01   169.44    9.21523E-02   116.89
   70.00   335.00       1.34    2.24    4.82    0.09857    48.03  RIGHT     1.84229E-01  -108.96    2.04414E-01  -120.28
   75.00   335.00      -0.60   -3.81    1.10    0.02846    34.62  LEFT      1.47452E-01   -35.55    1.01868E-01   -32.06
   80.00   335.00      -3.40   -5.86   -1.45    0.14270    36.64  LEFT      1.06789E-01    24.20    8.04138E-02    41.12
   85.00   335.00      -1.41   -4.50    0.32    0.05004    34.96  RIGHT     1.34296E-01    64.64    9.40741E-02    58.54
   90.00   335.00    -999.99 -999.99 -999.99    0.00000     0.00            6.79678E-12    91.43    5.45094E-12  -179.88
    0.00   340.00     -14.00  -11.34   -9.46    0.06618    53.71  RIGHT     3.15341E-02    14.44    4.28203E-02     6.50
    5.00   340.00      -2.86   -1.64    0.81    0.41156   -50.67  RIGHT     1.13689E-01    68.87    1.30855E-01   -65.82
   10.00   340.00      -1.96    1.01    2.78    0.22568    55.66  LEFT      1.26120E-01   138.89    1.77388E-01   165.94
   15.00   340.00       1.48   -4.09    2.54    0.47869   -12.77  RIGHT     1.87291E-01   147.22    9.86137E-02    38.08
   20.00   340.00       2.08   -3.93    3.05    0.03487    26.53  RIGHT     2.00789E-01  -177.93    1.00479E-01   177.08
   25.00   340.00     -11.77  -10.22   -7.92    0.43360    52.48  RIGHT     4.07491E-02   130.06    4.87042E-02    82.20
   30.00   340.00      -3.72   -8.56   -2.49    0.35610    24.63  RIGHT     1.02878E-01  -124.94    5.89375E-02  -172.05
   35.00   340.00      -7.08   -4.06   -2.31    0.63267    70.63  RIGHT     6.98990E-02   -75.56    9.89299E-02  -149.04
   40.00   340.00     -16.01    0.49    0.59    0.05084   -81.99  RIGHT     2.50089E-02   -78.98    1.67138E-01   121.30
   45.00   340.00      -2.93    3.20    4.15    0.31207   -68.86  RIGHT     1.12713E-01   144.82    2.28449E-01    10.60
   50.00   340.00       0.50    0.79    3.66    0.58888   -47.02  RIGHT     1.67272E-01    -4.41    1.73092E-01  -123.36
   55.00   340.00       1.21   -4.34    2.27    0.48031   -12.80  RIGHT     1.81485E-01  -174.09    9.58627E-02    76.82
   60.00   340.00      -2.24    0.50    2.35    0.21204   -54.78  RIGHT     1.22026E-01    20.65    1.67387E-01  -134.12
   65.00   340.00       0.84   -4.69    1.91    0.21958    25.86  RIGHT     1.73969E-01   130.03    9.20405E-02    99.59
   70.00   340.00       2.12    2.51    5.33    0.52005    47.24  RIGHT     2.01523E-01  -104.53    2.10793E-01  -159.57
   75.00   340.00       0.07   -2.45    2.00    0.50128    30.94  RIGHT     1.59234E-01   -20.81    1.19166E-01   -77.44
   80.00   340.00      -3.24   -0.43    1.40    0.11846    54.38  RIGHT     1.08734E-01    61.58    1.50286E-01    47.34
   85.00   340.00      -4.41   -9.92   -3.34    0.09669    27.59  RIGHT     9.50323E-02    95.89    5.04405E-02    82.51
   90.00   340.00    -999.99 -999.99 -999.99    0.00000     0.00            4.70171E-12  -120.74    1.09053E-11   -17.77
    0.00   345.00     -13.06  -11.94   -9.46    0.06618    48.71  RIGHT     3.51142E-02    13.60    3.99371E-02     5.96
    5.00   345.00      -4.39   -0.51    0.98    0.26143   -59.35  RIGHT     9.53232E-02   130.99    1.48942E-01   -16.40
   10.00   345.00      -7.29    4.05    4.36    0.16036    77.66  LEFT      6.82317E-02  -101.10    2.51727E-01   -62.85
   15.00   345.00       3.32  -12.94    3.42    0.10534     6.39  LEFT      2.31538E-01   -19.88    3.56053E-02    24.03
   20.00   345.00       3.92   -6.00    4.34    0.12352    16.40  RIGHT     2.48109E-01   100.49    7.91461E-02    75.64
   25.00   345.00      -7.23   -8.73   -4.91    0.45882    37.39  RIGHT     6.87233E-02   124.95    5.78107E-02    74.65
   30.00   345.00      -0.78   -6.76    0.20    0.46890    10.56  LEFT      1.44354E-01  -103.31    7.25672E-02   -30.00
   35.00   345.00      -5.47   -8.13   -3.59    0.63631    22.76  RIGHT     8.41267E-02   -15.96    6.19466E-02   -87.51
   40.00   345.00       0.87   -1.39    2.90    0.65401   -25.26  RIGHT     1.74641E-01     8.47    1.34579E-01  -100.19
   45.00   345.00      -4.57   -4.79   -1.67    0.95760    26.37  RIGHT     9.33837E-02   -62.95    9.09669E-02  -150.97
   50.00   345.00      -1.31   -2.96    0.96    0.57697   -34.01  RIGHT     1.35865E-01  -159.72    1.12401E-01    82.08
   55.00   345.00      -1.71    1.85    3.43    0.39562   -61.06  RIGHT     1.29794E-01    89.56    1.95415E-01   -42.52
   60.00   345.00       3.27   -5.86    3.77    0.31145     9.04  RIGHT     2.30240E-01   -68.52    8.04195E-02  -134.30
   65.00   345.00       0.35    1.18    3.79    0.18319    47.95  RIGHT     1.64371E-01    73.98    1.81030E-01    53.12
   70.00   345.00       1.05    1.57    4.33    0.09743    46.73  RIGHT     1.78295E-01  -140.09    1.89159E-01  -151.24
   75.00   345.00       2.40    3.12    5.79    0.03652    47.37  RIGHT     2.08332E-01   -16.61    2.26295E-01   -20.80
   80.00   345.00      -3.81    1.14    2.34    0.12720    61.09  LEFT      1.01836E-01    42.55    1.80108E-01    59.54
   85.00   345.00      -3.11   -2.09    0.44    0.28645    48.96  LEFT      1.10386E-01   109.48    1.24126E-01   141.70
   90.00   345.00    -999.99 -999.99 -999.99    0.00000     0.00            7.58770E-12  -112.22    2.53570E-12   175.18
    0.00   350.00     -12.28  -12.67   -9.46    0.06618    43.71  RIGHT     3.84332E-02    12.91    3.67541E-02     5.33
    5.00   350.00     -10.84    0.46    0.77    0.22420   -81.19  RIGHT     4.53538E-02   175.43    1.66531E-01    52.77
   10.00   350.00     -14.00    3.69    3.76    0.00767    82.58  RIGHT     3.15104E-02    44.42    2.41586E-01    40.99
   15.00   350.00       1.97   -0.50    3.92    0.46739    32.22  LEFT      1.98197E-01   170.42    1.49185E-01  -136.60
   20.00   350.00       5.24  -24.01    5.24    0.02748    -1.19  RIGHT     2.88740E-01   -16.35    9.95556E-03  -143.47
   25.00   350.00      -1.20  -18.62   -1.12    0.08770    -5.83  RIGHT     1.37536E-01   132.24    1.85183E-02    -6.60
   30.00   350.00      -4.61  -14.06   -4.14    0.15412   -16.69  LEFT      9.29522E-02  -155.78    3.13080E-02    -5.62
   35.00   350.00      -3.73   -9.30   -2.66    0.23915    25.30  RIGHT     1.02866E-01    34.34    5.41579E-02     1.05
   40.00   350.00      -2.65  -18.89   -2.55    0.03943    -8.48  LEFT      1.16393E-01    86.00    1.79521E-02  -109.14
   45.00   350.00      -2.04   -3.86    0.15    0.64103    30.16  RIGHT     1.24903E-01    83.22    1.01272E-01    14.98
   50.00   350.00       0.42    2.25    4.44    0.78720    76.02  RIGHT     1.65832E-01    26.06    2.04678E-01   -57.48
   55.00   350.00       3.41    2.35    5.92    0.41548    40.05  RIGHT     2.33840E-01   -63.27    2.07007E-01  -108.83
   60.00   350.00       2.38   -1.95    3.74    0.47470    21.60  RIGHT     2.07691E-01   179.48    1.26172E-01   118.66
   65.00   350.00       2.13   -1.29    3.76    0.21125    32.91  RIGHT     2.01869E-01    -2.81    1.36151E-01   -28.67
   70.00   350.00       0.95    2.80    4.98    0.13394    51.29  LEFT      1.76172E-01   151.75    2.18030E-01   167.37
   75.00   350.00       0.89    4.26    5.91    0.15470    56.40  RIGHT     1.75080E-01   -68.37    2.58048E-01   -87.35
   80.00   350.00      -0.37   -0.68    2.49    0.37354    43.67  LEFT      1.51345E-01    26.50    1.46128E-01    67.49
   85.00   350.00      -1.72   -0.74    1.81    0.46354    50.00  LEFT      1.29636E-01    46.55    1.45093E-01    96.72
   90.00   350.00    -198.84 -999.99 -197.25    0.00000     0.00            1.80459E-11   -99.45    1.20284E-11   -49.84
    0.00   355.00     -11.62  -13.52   -9.46    0.06618    38.71  RIGHT     4.14645E-02    12.32    3.32968E-02     4.57
    5.00   355.00     -28.12   -0.75   -0.75    0.01020    87.62  LEFT      6.20262E-03    99.17    1.44842E-01   112.97
   10.00   355.00     -16.05    3.03    3.08    0.07959   -85.56  RIGHT     2.48844E-02   -79.34    2.23918E-01   146.76
   15.00   355.00      -0.68    2.05    3.91    0.31895    55.98  LEFT      1.46032E-01   -10.99    2.00104E-01    26.45
   20.00   355.00       3.17   -3.85    3.95    0.17670   -22.31  LEFT      2.27481E-01  -160.22    1.01380E-01    -7.66
   25.00   355.00      -2.89   -2.71    0.21    0.93672   -54.59  LEFT      1.13223E-01    52.55    1.15677E-01   146.09
   30.00   355.00      -3.28  -11.50   -2.67    0.13898    19.94  RIGHT     1.08286E-01  -157.48    4.20234E-02   178.68
   35.00   355.00      -7.46   -6.39   -3.88    0.06100    48.58  RIGHT     6.68848E-02    13.77    7.57383E-02     6.73
   40.00   355.00      -6.80   -5.36   -3.01    0.62660    56.10  RIGHT     7.21774E-02   130.46    8.52362E-02    64.63
   45.00   355.00       0.19  -38.08    0.19    0.00734     0.56  LEFT      1.61381E-01  -155.89    1.96940E-03  -118.93
   50.00   355.00       0.03   -3.50    1.63    0.37397    29.64  RIGHT     1.58554E-01   178.45    1.05599E-01   133.13
   55.00   355.00      -2.88   -2.95    0.10    0.97047   -36.88  RIGHT     1.13431E-01   139.32    1.12484E-01    47.67
   60.00   355.00       2.99   -0.60    4.56    0.50591    24.35  RIGHT     2.22755E-01    24.31    1.47389E-01   -36.77
   65.00   355.00       4.15   -2.60    4.98    0.06928    24.47  LEFT      2.54632E-01  -127.28    1.17162E-01  -116.82
   70.00   355.00       4.39    1.94    6.35    0.08559    36.91  RIGHT     2.61819E-01    66.44    1.97522E-01    56.26
   75.00   355.00       2.94   -0.96    4.43    0.17525    31.69  LEFT      2.21710E-01  -150.44    1.41448E-01  -128.42
   80.00   355.00       4.97    2.66    6.98    0.38805    34.71  LEFT      2.79934E-01   -73.56    2.14622E-01   -29.25
   85.00   355.00       6.22   -0.28    7.10    0.41965    12.59  LEFT      3.23302E-01    23.30    1.53021E-01    90.64
   90.00   355.00    -191.96 -999.99 -191.91    0.00000     0.00            3.98527E-11  -112.96    4.43138E-12   -30.15






 ***** DATA CARD NO.  8   EN   0     0     0     0  0.00000E+00  0.00000E+00  0.00000E+00  0.00000E+00  0.00000E+00  0.00000E+00

 RUN TIME =   137.266
